<?xml version="1.0" encoding="UTF-8"?>

<!-- generated on 2022-07-16 19:20:13.698387 by gtfs2pt.py v1_14_0+0002-ebd7f0b131e
  options: -n osm.net.xml <doubleminus>gtfs TT-GTFS.zip <doubleminus>date 20220715 <doubleminus>modes bus <doubleminus>vtype-output pt_vtypes.xml
-->

<routes xmlns:xsi="http://www.w3.org/2001/XMLSchema-instance" xsi:noNamespaceSchemaLocation="http://sumo.dlr.de/xsd/routes_file.xsd">
    <vehicle id="0003720522022061120220911.0" route="0003720522022061120220911" type="bus" depart="28850" line="3_0003720522022061120220911"/>
    <vehicle id="0003723092022061120220911.0" route="0003723092022061120220911" type="bus" depart="25010" line="3_0003723092022061120220911"/>
    <vehicle id="0003723102022061120220911.0" route="0003723102022061120220911" type="bus" depart="27410" line="3_0003723102022061120220911"/>
    <vehicle id="0003723112022061120220911.0" route="0003723102022061120220911" type="bus" depart="28610" line="3_0003723102022061120220911"/>
    <vehicle id="0003723122022061120220911.0" route="0003723102022061120220911" type="bus" depart="29810" line="3_0003723102022061120220911"/>
    <vehicle id="0003723132022061120220911.0" route="0003723132022061120220911" type="bus" depart="25970" line="3_0003723132022061120220911"/>
    <vehicle id="0003723142022061120220911.0" route="0003723142022061120220911" type="bus" depart="73610" line="3_0003723142022061120220911"/>
    <vehicle id="0003723152022061120220911.0" route="0003723152022061120220911" type="bus" depart="23570" line="3_0003723152022061120220911"/>
    <vehicle id="0003723162022061120220911.0" route="0003723162022061120220911" type="bus" depart="25850" line="3_0003723162022061120220911"/>
    <vehicle id="0003723172022061120220911.0" route="0003723172022061120220911" type="bus" depart="43490" line="3_0003723172022061120220911"/>
    <vehicle id="0003723292022061120220911.0" route="0003723292022061120220911" type="bus" depart="25610" line="3_0003723292022061120220911"/>
    <vehicle id="0003723302022061120220911.0" route="0003723292022061120220911" type="bus" depart="32810" line="3_0003723292022061120220911"/>
    <vehicle id="0003723312022061120220911.0" route="0003723292022061120220911" type="bus" depart="30410" line="3_0003723292022061120220911"/>
    <vehicle id="0003723322022061120220911.0" route="0003723292022061120220911" type="bus" depart="37610" line="3_0003723292022061120220911"/>
    <vehicle id="0003723332022061120220911.0" route="0003723292022061120220911" type="bus" depart="44810" line="3_0003723292022061120220911"/>
    <vehicle id="0003723342022061120220911.0" route="0003723292022061120220911" type="bus" depart="52010" line="3_0003723292022061120220911"/>
    <vehicle id="0003723352022061120220911.0" route="0003723292022061120220911" type="bus" depart="40010" line="3_0003723292022061120220911"/>
    <vehicle id="0003723362022061120220911.0" route="0003723292022061120220911" type="bus" depart="47210" line="3_0003723292022061120220911"/>
    <vehicle id="0003723372022061120220911.0" route="0003723292022061120220911" type="bus" depart="54410" line="3_0003723292022061120220911"/>
    <vehicle id="0003723382022061120220911.0" route="0003723292022061120220911" type="bus" depart="61610" line="3_0003723292022061120220911"/>
    <vehicle id="0003723392022061120220911.0" route="0003723292022061120220911" type="bus" depart="68810" line="3_0003723292022061120220911"/>
    <vehicle id="0003723402022061120220911.0" route="0003723292022061120220911" type="bus" depart="20270" line="3_0003723292022061120220911"/>
    <vehicle id="0003723412022061120220911.0" route="0003723292022061120220911" type="bus" depart="28010" line="3_0003723292022061120220911"/>
    <vehicle id="0003723422022061120220911.0" route="0003723292022061120220911" type="bus" depart="35210" line="3_0003723292022061120220911"/>
    <vehicle id="0003723432022061120220911.0" route="0003723292022061120220911" type="bus" depart="42410" line="3_0003723292022061120220911"/>
    <vehicle id="0003723442022061120220911.0" route="0003723292022061120220911" type="bus" depart="49610" line="3_0003723292022061120220911"/>
    <vehicle id="0003723452022061120220911.0" route="0003723292022061120220911" type="bus" depart="56810" line="3_0003723292022061120220911"/>
    <vehicle id="0003723462022061120220911.0" route="0003723292022061120220911" type="bus" depart="64010" line="3_0003723292022061120220911"/>
    <vehicle id="0003723472022061120220911.0" route="0003723292022061120220911" type="bus" depart="71210" line="3_0003723292022061120220911"/>
    <vehicle id="0003723482022061120220911.0" route="0003723292022061120220911" type="bus" depart="59210" line="3_0003723292022061120220911"/>
    <vehicle id="0003723492022061120220911.0" route="0003723292022061120220911" type="bus" depart="66410" line="3_0003723292022061120220911"/>
    <vehicle id="0003723502022061120220911.0" route="0003723292022061120220911" type="bus" depart="22610" line="3_0003723292022061120220911"/>
    <vehicle id="0003723512022061120220911.0" route="0003723512022061120220911" type="bus" depart="42710" line="3_0003723512022061120220911"/>
    <vehicle id="0003723522022061120220911.0" route="0003723522022061120220911" type="bus" depart="45410" line="3_0003723522022061120220911"/>
    <vehicle id="0003723532022061120220911.0" route="0003723522022061120220911" type="bus" depart="36410" line="3_0003723522022061120220911"/>
    <vehicle id="0003723542022061120220911.0" route="0003723522022061120220911" type="bus" depart="34010" line="3_0003723522022061120220911"/>
    <vehicle id="0003723552022061120220911.0" route="0003723522022061120220911" type="bus" depart="26810" line="3_0003723522022061120220911"/>
    <vehicle id="0003723562022061120220911.0" route="0003723522022061120220911" type="bus" depart="41210" line="3_0003723522022061120220911"/>
    <vehicle id="0003723572022061120220911.0" route="0003723522022061120220911" type="bus" depart="48410" line="3_0003723522022061120220911"/>
    <vehicle id="0003723582022061120220911.0" route="0003723512022061120220911" type="bus" depart="55610" line="3_0003723512022061120220911"/>
    <vehicle id="0003723592022061120220911.0" route="0003723522022061120220911" type="bus" depart="62810" line="3_0003723522022061120220911"/>
    <vehicle id="0003723602022061120220911.0" route="0003723512022061120220911" type="bus" depart="70010" line="3_0003723512022061120220911"/>
    <vehicle id="0003723612022061120220911.0" route="0003723522022061120220911" type="bus" depart="29210" line="3_0003723522022061120220911"/>
    <vehicle id="0003723622022061120220911.0" route="0003723522022061120220911" type="bus" depart="43610" line="3_0003723522022061120220911"/>
    <vehicle id="0003723632022061120220911.0" route="0003723522022061120220911" type="bus" depart="50810" line="3_0003723522022061120220911"/>
    <vehicle id="0003723642022061120220911.0" route="0003723522022061120220911" type="bus" depart="58010" line="3_0003723522022061120220911"/>
    <vehicle id="0003723652022061120220911.0" route="0003723512022061120220911" type="bus" depart="65210" line="3_0003723512022061120220911"/>
    <vehicle id="0003723662022061120220911.0" route="0003723522022061120220911" type="bus" depart="72410" line="3_0003723522022061120220911"/>
    <vehicle id="0003723672022061120220911.0" route="0003723522022061120220911" type="bus" depart="31610" line="3_0003723522022061120220911"/>
    <vehicle id="0003723682022061120220911.0" route="0003723512022061120220911" type="bus" depart="38810" line="3_0003723512022061120220911"/>
    <vehicle id="0003723692022061120220911.0" route="0003723512022061120220911" type="bus" depart="46010" line="3_0003723512022061120220911"/>
    <vehicle id="0003723702022061120220911.0" route="0003723522022061120220911" type="bus" depart="53210" line="3_0003723522022061120220911"/>
    <vehicle id="0003723712022061120220911.0" route="0003723512022061120220911" type="bus" depart="60410" line="3_0003723512022061120220911"/>
    <vehicle id="0003723722022061120220911.0" route="0003723522022061120220911" type="bus" depart="67610" line="3_0003723522022061120220911"/>
    <vehicle id="0003723732022061120220911.0" route="0003723522022061120220911" type="bus" depart="74810" line="3_0003723522022061120220911"/>
    <vehicle id="0003729462022061120220911.0" route="0003729462022061120220911" type="bus" depart="49550" line="3_0003729462022061120220911"/>
    <vehicle id="0003729472022061120220911.0" route="0003729472022061120220911" type="bus" depart="19070" line="3_0003729472022061120220911"/>
    <vehicle id="0003729482022061120220911.0" route="0003729472022061120220911" type="bus" depart="23630" line="3_0003729472022061120220911"/>
    <vehicle id="0003729492022061120220911.0" route="0003729492022061120220911" type="bus" depart="30950" line="3_0003729492022061120220911"/>
    <vehicle id="0003729502022061120220911.0" route="0003729492022061120220911" type="bus" depart="38150" line="3_0003729492022061120220911"/>
    <vehicle id="0003729512022061120220911.0" route="0003729492022061120220911" type="bus" depart="52550" line="3_0003729492022061120220911"/>
    <vehicle id="0003729522022061120220911.0" route="0003729472022061120220911" type="bus" depart="59750" line="3_0003729472022061120220911"/>
    <vehicle id="0003729532022061120220911.0" route="0003729472022061120220911" type="bus" depart="66950" line="3_0003729472022061120220911"/>
    <vehicle id="0003729542022061120220911.0" route="0003729472022061120220911" type="bus" depart="74150" line="3_0003729472022061120220911"/>
    <vehicle id="0003729552022061120220911.0" route="0003729472022061120220911" type="bus" depart="33350" line="3_0003729472022061120220911"/>
    <vehicle id="0003729562022061120220911.0" route="0003729472022061120220911" type="bus" depart="40550" line="3_0003729472022061120220911"/>
    <vehicle id="0003729572022061120220911.0" route="0003729472022061120220911" type="bus" depart="47750" line="3_0003729472022061120220911"/>
    <vehicle id="0003729582022061120220911.0" route="0003729472022061120220911" type="bus" depart="54950" line="3_0003729472022061120220911"/>
    <vehicle id="0003729592022061120220911.0" route="0003729472022061120220911" type="bus" depart="62150" line="3_0003729472022061120220911"/>
    <vehicle id="0003729602022061120220911.0" route="0003729472022061120220911" type="bus" depart="69350" line="3_0003729472022061120220911"/>
    <vehicle id="0003729612022061120220911.0" route="0003729472022061120220911" type="bus" depart="35750" line="3_0003729472022061120220911"/>
    <vehicle id="0003729622022061120220911.0" route="0003729472022061120220911" type="bus" depart="43250" line="3_0003729472022061120220911"/>
    <vehicle id="0003729632022061120220911.0" route="0003729492022061120220911" type="bus" depart="50330" line="3_0003729492022061120220911"/>
    <vehicle id="0003729642022061120220911.0" route="0003729472022061120220911" type="bus" depart="57350" line="3_0003729472022061120220911"/>
    <vehicle id="0003729652022061120220911.0" route="0003729472022061120220911" type="bus" depart="64550" line="3_0003729472022061120220911"/>
    <vehicle id="0003729662022061120220911.0" route="0003729472022061120220911" type="bus" depart="71750" line="3_0003729472022061120220911"/>
    <vehicle id="0003729672022061120220911.0" route="0003729472022061120220911" type="bus" depart="45350" line="3_0003729472022061120220911"/>
    <vehicle id="0003729682022061120220911.0" route="0003729472022061120220911" type="bus" depart="21950" line="3_0003729472022061120220911"/>
    <vehicle id="0003729692022061120220911.0" route="0003729472022061120220911" type="bus" depart="26150" line="3_0003729472022061120220911"/>
    <vehicle id="0003729702022061120220911.0" route="0003729492022061120220911" type="bus" depart="22850" line="3_0003729492022061120220911"/>
    <vehicle id="0003729712022061120220911.0" route="0003729492022061120220911" type="bus" depart="27350" line="3_0003729492022061120220911"/>
    <vehicle id="0003729722022061120220911.0" route="0003729472022061120220911" type="bus" depart="28850" line="3_0003729472022061120220911"/>
    <vehicle id="0003729732022061120220911.0" route="0003729732022061120220911" type="bus" depart="65750" line="3_0003729732022061120220911"/>
    <vehicle id="0003729742022061120220911.0" route="0003729732022061120220911" type="bus" depart="72950" line="3_0003729732022061120220911"/>
    <vehicle id="0003729752022061120220911.0" route="0003729732022061120220911" type="bus" depart="41750" line="3_0003729732022061120220911"/>
    <vehicle id="0003729762022061120220911.0" route="0003729732022061120220911" type="bus" depart="48950" line="3_0003729732022061120220911"/>
    <vehicle id="0003729772022061120220911.0" route="0003729732022061120220911" type="bus" depart="56150" line="3_0003729732022061120220911"/>
    <vehicle id="0003729782022061120220911.0" route="0003729732022061120220911" type="bus" depart="63350" line="3_0003729732022061120220911"/>
    <vehicle id="0003729792022061120220911.0" route="0003729732022061120220911" type="bus" depart="70550" line="3_0003729732022061120220911"/>
    <vehicle id="0003729802022061120220911.0" route="0003729802022061120220911" type="bus" depart="25250" line="3_0003729802022061120220911"/>
    <vehicle id="0003729812022061120220911.0" route="0003729732022061120220911" type="bus" depart="32150" line="3_0003729732022061120220911"/>
    <vehicle id="0003729822022061120220911.0" route="0003729732022061120220911" type="bus" depart="39350" line="3_0003729732022061120220911"/>
    <vehicle id="0003729832022061120220911.0" route="0003729732022061120220911" type="bus" depart="46550" line="3_0003729732022061120220911"/>
    <vehicle id="0003729842022061120220911.0" route="0003729732022061120220911" type="bus" depart="53750" line="3_0003729732022061120220911"/>
    <vehicle id="0003729852022061120220911.0" route="0003729732022061120220911" type="bus" depart="60950" line="3_0003729732022061120220911"/>
    <vehicle id="0003729862022061120220911.0" route="0003729732022061120220911" type="bus" depart="68150" line="3_0003729732022061120220911"/>
    <vehicle id="0003729872022061120220911.0" route="0003729732022061120220911" type="bus" depart="26750" line="3_0003729732022061120220911"/>
    <vehicle id="0003729882022061120220911.0" route="0003729802022061120220911" type="bus" depart="34550" line="3_0003729802022061120220911"/>
    <vehicle id="0003729892022061120220911.0" route="0003729732022061120220911" type="bus" depart="29750" line="3_0003729732022061120220911"/>
    <vehicle id="0003729902022061120220911.0" route="0003729732022061120220911" type="bus" depart="36950" line="3_0003729732022061120220911"/>
    <vehicle id="0003729912022061120220911.0" route="0003729732022061120220911" type="bus" depart="44150" line="3_0003729732022061120220911"/>
    <vehicle id="0003729922022061120220911.0" route="0003729732022061120220911" type="bus" depart="51350" line="3_0003729732022061120220911"/>
    <vehicle id="0003729932022061120220911.0" route="0003729732022061120220911" type="bus" depart="58550" line="3_0003729732022061120220911"/>
    <vehicle id="0003729942022061120220911.0" route="0003729472022061120220911" type="bus" depart="24530" line="3_0003729472022061120220911"/>
    <vehicle id="0003735462022061120220911.0" route="0003735462022061120220911" type="bus" depart="28250" line="3_0003735462022061120220911"/>
    <vehicle id="0003739302022061120220911.0" route="0003729732022061120220911" type="bus" depart="75350" line="3_0003729732022061120220911"/>
    <vehicle id="0003739502022061120220911.0" route="0003739502022061120220911" type="bus" depart="76490" line="3_0003739502022061120220911"/>
    <vehicle id="0003739512022061120220911.0" route="0003739502022061120220911" type="bus" depart="83690" line="3_0003739502022061120220911"/>
    <vehicle id="0003739522022061120220911.0" route="0003739522022061120220911" type="bus" depart="80750" line="3_0003739522022061120220911"/>
    <vehicle id="0003739532022061120220911.0" route="0003739522022061120220911" type="bus" depart="82550" line="3_0003739522022061120220911"/>
    <vehicle id="0003739542022061120220911.0" route="0003739502022061120220911" type="bus" depart="78290" line="3_0003739502022061120220911"/>
    <vehicle id="0003739552022061120220911.0" route="0003739522022061120220911" type="bus" depart="77150" line="3_0003739522022061120220911"/>
    <vehicle id="0003739562022061120220911.0" route="0003739522022061120220911" type="bus" depart="84350" line="3_0003739522022061120220911"/>
    <vehicle id="0003739572022061120220911.0" route="0003739502022061120220911" type="bus" depart="80090" line="3_0003739502022061120220911"/>
    <vehicle id="0003739582022061120220911.0" route="0003739522022061120220911" type="bus" depart="78950" line="3_0003739522022061120220911"/>
    <vehicle id="0003739592022061120220911.0" route="0003739502022061120220911" type="bus" depart="81890" line="3_0003739502022061120220911"/>
    <vehicle id="0003718662022061120220911.0" route="0003718662022061120220911" type="bus" depart="21950" line="5_0003718662022061120220911"/>
    <vehicle id="0003718672022061120220911.0" route="0003718662022061120220911" type="bus" depart="26090" line="5_0003718662022061120220911"/>
    <vehicle id="0003718682022061120220911.0" route="0003718662022061120220911" type="bus" depart="27110" line="5_0003718662022061120220911"/>
    <vehicle id="0003719272022061120220911.0" route="0003718662022061120220911" type="bus" depart="24710" line="5_0003718662022061120220911"/>
    <vehicle id="0003719282022061120220911.0" route="0003718662022061120220911" type="bus" depart="29810" line="5_0003718662022061120220911"/>
    <vehicle id="0003719292022061120220911.0" route="0003718662022061120220911" type="bus" depart="31010" line="5_0003718662022061120220911"/>
    <vehicle id="0003719302022061120220911.0" route="0003718662022061120220911" type="bus" depart="28610" line="5_0003718662022061120220911"/>
    <vehicle id="0003719312022061120220911.0" route="0003718662022061120220911" type="bus" depart="32210" line="5_0003718662022061120220911"/>
    <vehicle id="0003719322022061120220911.0" route="0003718662022061120220911" type="bus" depart="35810" line="5_0003718662022061120220911"/>
    <vehicle id="0003719332022061120220911.0" route="0003718662022061120220911" type="bus" depart="39410" line="5_0003718662022061120220911"/>
    <vehicle id="0003719342022061120220911.0" route="0003718662022061120220911" type="bus" depart="43010" line="5_0003718662022061120220911"/>
    <vehicle id="0003719352022061120220911.0" route="0003718662022061120220911" type="bus" depart="46610" line="5_0003718662022061120220911"/>
    <vehicle id="0003719362022061120220911.0" route="0003718662022061120220911" type="bus" depart="50210" line="5_0003718662022061120220911"/>
    <vehicle id="0003719372022061120220911.0" route="0003718662022061120220911" type="bus" depart="53810" line="5_0003718662022061120220911"/>
    <vehicle id="0003719382022061120220911.0" route="0003718662022061120220911" type="bus" depart="57410" line="5_0003718662022061120220911"/>
    <vehicle id="0003719392022061120220911.0" route="0003718662022061120220911" type="bus" depart="61010" line="5_0003718662022061120220911"/>
    <vehicle id="0003719402022061120220911.0" route="0003718662022061120220911" type="bus" depart="64610" line="5_0003718662022061120220911"/>
    <vehicle id="0003719412022061120220911.0" route="0003718662022061120220911" type="bus" depart="68210" line="5_0003718662022061120220911"/>
    <vehicle id="0003719422022061120220911.0" route="0003718662022061120220911" type="bus" depart="71810" line="5_0003718662022061120220911"/>
    <vehicle id="0003719432022061120220911.0" route="0003718662022061120220911" type="bus" depart="33410" line="5_0003718662022061120220911"/>
    <vehicle id="0003719442022061120220911.0" route="0003718662022061120220911" type="bus" depart="37010" line="5_0003718662022061120220911"/>
    <vehicle id="0003719452022061120220911.0" route="0003718662022061120220911" type="bus" depart="40610" line="5_0003718662022061120220911"/>
    <vehicle id="0003719462022061120220911.0" route="0003718662022061120220911" type="bus" depart="44210" line="5_0003718662022061120220911"/>
    <vehicle id="0003719472022061120220911.0" route="0003718662022061120220911" type="bus" depart="47810" line="5_0003718662022061120220911"/>
    <vehicle id="0003719492022061120220911.0" route="0003718662022061120220911" type="bus" depart="55010" line="5_0003718662022061120220911"/>
    <vehicle id="0003719502022061120220911.0" route="0003718662022061120220911" type="bus" depart="58610" line="5_0003718662022061120220911"/>
    <vehicle id="0003719512022061120220911.0" route="0003718662022061120220911" type="bus" depart="62210" line="5_0003718662022061120220911"/>
    <vehicle id="0003719522022061120220911.0" route="0003718662022061120220911" type="bus" depart="65810" line="5_0003718662022061120220911"/>
    <vehicle id="0003719532022061120220911.0" route="0003718662022061120220911" type="bus" depart="69410" line="5_0003718662022061120220911"/>
    <vehicle id="0003719542022061120220911.0" route="0003718662022061120220911" type="bus" depart="73010" line="5_0003718662022061120220911"/>
    <vehicle id="0003719552022061120220911.0" route="0003718662022061120220911" type="bus" depart="34610" line="5_0003718662022061120220911"/>
    <vehicle id="0003719562022061120220911.0" route="0003718662022061120220911" type="bus" depart="38210" line="5_0003718662022061120220911"/>
    <vehicle id="0003719572022061120220911.0" route="0003718662022061120220911" type="bus" depart="41810" line="5_0003718662022061120220911"/>
    <vehicle id="0003719582022061120220911.0" route="0003718662022061120220911" type="bus" depart="45410" line="5_0003718662022061120220911"/>
    <vehicle id="0003719592022061120220911.0" route="0003718662022061120220911" type="bus" depart="49010" line="5_0003718662022061120220911"/>
    <vehicle id="0003719602022061120220911.0" route="0003718662022061120220911" type="bus" depart="52610" line="5_0003718662022061120220911"/>
    <vehicle id="0003719612022061120220911.0" route="0003718662022061120220911" type="bus" depart="56210" line="5_0003718662022061120220911"/>
    <vehicle id="0003719622022061120220911.0" route="0003718662022061120220911" type="bus" depart="59810" line="5_0003718662022061120220911"/>
    <vehicle id="0003719632022061120220911.0" route="0003718662022061120220911" type="bus" depart="63410" line="5_0003718662022061120220911"/>
    <vehicle id="0003719642022061120220911.0" route="0003718662022061120220911" type="bus" depart="67010" line="5_0003718662022061120220911"/>
    <vehicle id="0003719652022061120220911.0" route="0003718662022061120220911" type="bus" depart="70610" line="5_0003718662022061120220911"/>
    <vehicle id="0003719662022061120220911.0" route="0003718662022061120220911" type="bus" depart="74210" line="5_0003718662022061120220911"/>
    <vehicle id="0003726772022061120220911.0" route="0003726772022061120220911" type="bus" depart="70550" line="5_0003726772022061120220911"/>
    <vehicle id="0003739682022061120220911.0" route="0003718662022061120220911" type="bus" depart="76010" line="5_0003718662022061120220911"/>
    <vehicle id="0003739692022061120220911.0" route="0003718662022061120220911" type="bus" depart="79610" line="5_0003718662022061120220911"/>
    <vehicle id="0003739702022061120220911.0" route="0003718662022061120220911" type="bus" depart="83210" line="5_0003718662022061120220911"/>
    <vehicle id="0003740942022061120220911.0" route="0003740942022061120220911" type="bus" depart="31070" line="5_0003740942022061120220911"/>
    <vehicle id="0003740952022061120220911.0" route="0003740942022061120220911" type="bus" depart="34670" line="5_0003740942022061120220911"/>
    <vehicle id="0003741022022061120220911.0" route="0003740942022061120220911" type="bus" depart="29570" line="5_0003740942022061120220911"/>
    <vehicle id="0003741032022061120220911.0" route="0003740942022061120220911" type="bus" depart="31970" line="5_0003740942022061120220911"/>
    <vehicle id="0003741092022061120220911.0" route="0003741092022061120220911" type="bus" depart="29810" line="5_0003741092022061120220911"/>
    <vehicle id="0003741102022061120220911.0" route="0003740942022061120220911" type="bus" depart="32270" line="5_0003740942022061120220911"/>
    <vehicle id="0003741172022061120220911.0" route="0003740942022061120220911" type="bus" depart="59570" line="5_0003740942022061120220911"/>
    <vehicle id="0003741182022061120220911.0" route="0003740942022061120220911" type="bus" depart="61970" line="5_0003740942022061120220911"/>
    <vehicle id="0003741192022061120220911.0" route="0003740942022061120220911" type="bus" depart="64370" line="5_0003740942022061120220911"/>
    <vehicle id="0003741202022061120220911.0" route="0003740942022061120220911" type="bus" depart="66770" line="5_0003740942022061120220911"/>
    <vehicle id="0003741262022061120220911.0" route="0003740942022061120220911" type="bus" depart="63170" line="5_0003740942022061120220911"/>
    <vehicle id="0003741272022061120220911.0" route="0003740942022061120220911" type="bus" depart="65570" line="5_0003740942022061120220911"/>
    <vehicle id="0003741282022061120220911.0" route="0003740942022061120220911" type="bus" depart="60770" line="5_0003740942022061120220911"/>
    <vehicle id="0003746362022061120220911.0" route="0003740942022061120220911" type="bus" depart="30770" line="5_0003740942022061120220911"/>
    <vehicle id="0003746522022061120220911.0" route="0003718662022061120220911" type="bus" depart="51410" line="5_0003718662022061120220911"/>
    <vehicle id="0003718632022061120220911.0" route="0003718632022061120220911" type="bus" depart="25010" line="7_0003718632022061120220911"/>
    <vehicle id="0003718702022061120220911.0" route="0003718702022061120220911" type="bus" depart="20150" line="7_0003718702022061120220911"/>
    <vehicle id="0003719672022061120220911.0" route="0003718632022061120220911" type="bus" depart="25610" line="7_0003718632022061120220911"/>
    <vehicle id="0003719682022061120220911.0" route="0003719682022061120220911" type="bus" depart="21170" line="7_0003719682022061120220911"/>
    <vehicle id="0003722232022061120220911.0" route="0003722232022061120220911" type="bus" depart="25610" line="7_0003722232022061120220911"/>
    <vehicle id="0003722242022061120220911.0" route="0003722242022061120220911" type="bus" depart="21590" line="7_0003722242022061120220911"/>
    <vehicle id="0003722252022061120220911.0" route="0003722252022061120220911" type="bus" depart="26990" line="7_0003722252022061120220911"/>
    <vehicle id="0003722262022061120220911.0" route="0003722262022061120220911" type="bus" depart="31190" line="7_0003722262022061120220911"/>
    <vehicle id="0003722272022061120220911.0" route="0003722262022061120220911" type="bus" depart="32630" line="7_0003722262022061120220911"/>
    <vehicle id="0003722282022061120220911.0" route="0003722262022061120220911" type="bus" depart="39830" line="7_0003722262022061120220911"/>
    <vehicle id="0003722292022061120220911.0" route="0003722262022061120220911" type="bus" depart="26390" line="7_0003722262022061120220911"/>
    <vehicle id="0003722302022061120220911.0" route="0003722262022061120220911" type="bus" depart="41270" line="7_0003722262022061120220911"/>
    <vehicle id="0003722312022061120220911.0" route="0003722262022061120220911" type="bus" depart="47030" line="7_0003722262022061120220911"/>
    <vehicle id="0003722322022061120220911.0" route="0003722262022061120220911" type="bus" depart="52790" line="7_0003722262022061120220911"/>
    <vehicle id="0003722332022061120220911.0" route="0003722262022061120220911" type="bus" depart="58550" line="7_0003722262022061120220911"/>
    <vehicle id="0003722342022061120220911.0" route="0003722262022061120220911" type="bus" depart="64310" line="7_0003722262022061120220911"/>
    <vehicle id="0003722352022061120220911.0" route="0003722262022061120220911" type="bus" depart="70070" line="7_0003722262022061120220911"/>
    <vehicle id="0003722362022061120220911.0" route="0003722262022061120220911" type="bus" depart="36950" line="7_0003722262022061120220911"/>
    <vehicle id="0003722372022061120220911.0" route="0003722262022061120220911" type="bus" depart="42710" line="7_0003722262022061120220911"/>
    <vehicle id="0003722382022061120220911.0" route="0003722262022061120220911" type="bus" depart="48470" line="7_0003722262022061120220911"/>
    <vehicle id="0003722392022061120220911.0" route="0003722262022061120220911" type="bus" depart="54230" line="7_0003722262022061120220911"/>
    <vehicle id="0003722402022061120220911.0" route="0003722262022061120220911" type="bus" depart="59990" line="7_0003722262022061120220911"/>
    <vehicle id="0003722412022061120220911.0" route="0003722262022061120220911" type="bus" depart="65750" line="7_0003722262022061120220911"/>
    <vehicle id="0003722422022061120220911.0" route="0003722262022061120220911" type="bus" depart="71510" line="7_0003722262022061120220911"/>
    <vehicle id="0003722432022061120220911.0" route="0003722262022061120220911" type="bus" depart="38390" line="7_0003722262022061120220911"/>
    <vehicle id="0003722442022061120220911.0" route="0003722262022061120220911" type="bus" depart="44150" line="7_0003722262022061120220911"/>
    <vehicle id="0003722452022061120220911.0" route="0003722262022061120220911" type="bus" depart="49910" line="7_0003722262022061120220911"/>
    <vehicle id="0003722462022061120220911.0" route="0003722262022061120220911" type="bus" depart="55670" line="7_0003722262022061120220911"/>