<?xml version="1.0" encoding="UTF-8"?>

<!-- generated on 2022-07-16 19:15:54.166726 by gtfs2pt.py v1_14_0+0002-ebd7f0b131e
  options: -n osm.net.xml <doubleminus>gtfs TT-GTFS.zip <doubleminus>date 20220715 <doubleminus>modes bus <doubleminus>vtype-output pt_vtypes.xml
-->

<additional xmlns:xsi="http://www.w3.org/2001/XMLSchema-instance" xsi:noNamespaceSchemaLocation="http://sumo.dlr.de/xsd/additional_file.xsd">
    <busStop id="-309521772#6:45.68" lane="-309521772#6_0" startPos="32.68" endPos="58.68" friendlyPos="true" name="Gardolo S.Anna">
    </busStop>
    <busStop id="-76902366:22.54" lane="-76902366_0" startPos="9.54" endPos="35.54" friendlyPos="true" name="Gardolo Piazza">
    </busStop>
    <busStop id="-97286587#1:27.38" lane="-97286587#1_0" startPos="14.38" endPos="40.38" friendlyPos="true" name="Gardolo P.Le Neufahrn Nord">
    </busStop>
    <busStop id="-307407914:10.09" lane="-307407914_0" startPos="0.00" endPos="23.09" friendlyPos="true" name="Gardolo Svincolo Ss.12">
    </busStop>
    <busStop id="974835706#1:29.83" lane="974835706#1_0" startPos="16.83" endPos="42.83" friendlyPos="true" name="Ss 12 &quot;Paludi&quot;">
    </busStop>
    <busStop id="35473304#13:41.68" lane="35473304#13_0" startPos="28.68" endPos="54.68" friendlyPos="true" name="Ss 12 Canova">
    </busStop>
    <busStop id="51764178#4:45.22" lane="51764178#4_0" startPos="32.22" endPos="58.22" friendlyPos="true" name="Brennero &quot;Bren Center&quot;">
    </busStop>
    <busStop id="51764178#7:33.87" lane="51764178#7_0" startPos="20.87" endPos="46.87" friendlyPos="true" name="Brennero &quot;Magnete&quot;">
    </busStop>
    <busStop id="23854595#7:41.24" lane="23854595#7_0" startPos="28.24" endPos="54.24" friendlyPos="true" name="Brennero Marconi">
    </busStop>
    <busStop id="127209003#7:49.37" lane="127209003#7_0" startPos="36.37" endPos="62.37" friendlyPos="true" name="Brennero &quot;Ex Scalo Filzi&quot;">
    </busStop>
    <busStop id="23952132#1:24.26" lane="23952132#1_0" startPos="11.26" endPos="37.26" friendlyPos="true" name="Segantini Centa">
    </busStop>
    <busStop id="23952132#7:52.21" lane="23952132#7_0" startPos="39.21" endPos="65.21" friendlyPos="true" name="Segantini Dogana">
    </busStop>
    <busStop id="72847149:58.65" lane="72847149_0" startPos="45.65" endPos="71.65" friendlyPos="true" name="Piazza Dante &quot;Stazione Fs&quot;">
    </busStop>
    <busStop id="1064508566#0:18.59" lane="1064508566#0_0" startPos="5.59" endPos="31.59" friendlyPos="true" name="Rosmini S.Maria Maggiore">
    </busStop>
    <busStop id="23957570#3:7.73" lane="23957570#3_0" startPos="0.00" endPos="20.73" friendlyPos="true" name="Travai Al Nuoto / Muse">
    </busStop>
    <busStop id="23957570#4:16.67" lane="23957570#4_0" startPos="3.67" endPos="29.67" friendlyPos="true" name="Travai Piazza Fiera">
    </busStop>
    <busStop id="24094897#3:8.30" lane="24094897#3_0" startPos="0.00" endPos="21.30" friendlyPos="true" name="3 Nov. &quot;Centro S.Chiara&quot;">
    </busStop>
    <busStop id="68286123#0:28.58" lane="68286123#0_0" startPos="15.58" endPos="41.58" friendlyPos="true" name="3 Nov. &quot;Ponte Cavalleggeri&quot;">
    </busStop>
    <busStop id="97749768#6:17.21" lane="97749768#6_0" startPos="4.21" endPos="30.21" friendlyPos="true" name="Verona Fogazzaro">
    </busStop>
    <busStop id="-97121843:25.62" lane="-97121843_0" startPos="12.62" endPos="38.62" friendlyPos="true" name="Verona Einaudi">
    </busStop>
    <busStop id="24392334#1:30.12" lane="24392334#1_0" startPos="17.12" endPos="43.12" friendlyPos="true" name="Verona &quot;S.Bartolameo&quot;">
    </busStop>
    <busStop id="-97084816:19.84" lane="-97084816_0" startPos="6.84" endPos="32.84" friendlyPos="true" name="Conci &quot;Villazzano 3&quot;">
    </busStop>
    <busStop id="118775764:14.12" lane="118775764_0" startPos="1.12" endPos="27.12" friendlyPos="true" name="Conci De Riccabona">
    </busStop>
    <busStop id="118775760#4:59.10" lane="118775760#4_0" startPos="46.10" endPos="72.10" friendlyPos="true" name="Conci Ferrovia">
    </busStop>
    <busStop id="1058293024:37.58" lane="1058293024_0" startPos="24.58" endPos="50.58" friendlyPos="true" name="Menguzzato Al Casteller">
    </busStop>
    <busStop id="-23807827#4:96.18" lane="-23807827#4_0" startPos="83.18" endPos="109.18" friendlyPos="true" name="Menguzzato &quot;Centro Civico&quot;">
    </busStop>
    <busStop id="777291964#1:51.18" lane="777291964#1_0" startPos="38.18" endPos="64.18" friendlyPos="true" name="Verona &quot;Big Center&quot;">
    </busStop>
    <busStop id="777291963#3:56.25" lane="777291963#3_0" startPos="43.25" endPos="69.25" friendlyPos="true" name="Verona &quot;Questura&quot;">
    </busStop>
    <busStop id="23234595#0:91.82" lane="23234595#0_0" startPos="78.82" endPos="104.82" friendlyPos="true" name="Verona &quot;S.Bartolameo&quot;">
    </busStop>
    <busStop id="97121843:0.00" lane="97121843_0" startPos="0.00" endPos="13.00" friendlyPos="true" name="Verona Einaudi">
    </busStop>
    <busStop id="-97749768#7:7.73" lane="-97749768#7_0" startPos="0.00" endPos="20.73" friendlyPos="true" name="Verona Fogazzaro">
    </busStop>
    <busStop id="-68286123#0:34.96" lane="-68286123#0_0" startPos="21.96" endPos="47.96" friendlyPos="true" name="3 Nov. &quot;Ponte Cavalleggeri&quot;">
    </busStop>
    <busStop id="24094897#3:16.97" lane="24094897#3_0" startPos="3.97" endPos="29.97" friendlyPos="true" name="3 Nov. &quot;Centro S.Chiara&quot;">
    </busStop>
    <busStop id="-24755681#2:47.29" lane="-24755681#2_0" startPos="34.29" endPos="60.29" friendlyPos="true" name="S.Francesco Porta Nuova">
    </busStop>
    <busStop id="24789912:6.35" lane="24789912_0" startPos="0.00" endPos="19.35" friendlyPos="true" name="Sanzio &quot;Castello&quot;">
    </busStop>
    <busStop id="30076096#2:51.80" lane="30076096#2_0" startPos="38.80" endPos="64.80" friendlyPos="true" name="Romagnosi Vannetti">
    </busStop>
    <busStop id="23800071#1:90.73" lane="23800071#1_0" startPos="77.73" endPos="103.73" friendlyPos="true" name="Piazza Dante &quot;Dogana&quot;">
    </busStop>
    <busStop id="27503568:26.07" lane="27503568_0" startPos="13.07" endPos="39.07" friendlyPos="true" name="Centa Brennero">
    </busStop>
    <busStop id="-216745509:32.31" lane="-216745509_0" startPos="19.31" endPos="45.31" friendlyPos="true" name="Brennero Malvasia">
    </busStop>
    <busStop id="-127209003#5:16.22" lane="-127209003#5_0" startPos="3.22" endPos="29.22" friendlyPos="true" name="Brennero &quot;Ex Scalo Filzi&quot;">
    </busStop>
    <busStop id="-754578288#5:0.00" lane="-754578288#5_0" startPos="0.00" endPos="13.00" friendlyPos="true" name="Brennero Marconi">
    </busStop>
    <busStop id="37246725#1:53.43" lane="37246725#1_0" startPos="40.43" endPos="66.43" friendlyPos="true" name="Brennero &quot;Tridente&quot;">
    </busStop>
    <busStop id="37246725#13:43.46" lane="37246725#13_0" startPos="30.46" endPos="56.46" friendlyPos="true" name="Brennero &quot;Bren Center&quot;">
    </busStop>
    <busStop id="-80375824#5:2.10" lane="-80375824#5_0" startPos="0.00" endPos="15.10" friendlyPos="true" name="Zambra &quot;Ist. D'arte Vittoria&quot;">
    </busStop>
    <busStop id="-80375824#0:21.84" lane="-80375824#0_0" startPos="8.84" endPos="34.84" friendlyPos="true" name="Zambra &quot;Top Center&quot;">
    </busStop>
    <busStop id="97084820#2:8.11" lane="97084820#2_0" startPos="0.00" endPos="21.11" friendlyPos="true" name="Ss 349 Pozzata">
    </busStop>
    <busStop id="97084820#3:0.00" lane="97084820#3_0" startPos="0.00" endPos="13.00" friendlyPos="true" name="San Rocco Torricelle">
    </busStop>
    <busStop id="97084820#7:53.24" lane="97084820#7_0" startPos="40.24" endPos="66.24" friendlyPos="true" name="Ss 349 Pozzata">
    </busStop>
    <busStop id="37681145:66.03" lane="37681145_0" startPos="53.03" endPos="79.03" friendlyPos="true" name="Conci &quot;Villazzano 3&quot;">
    </busStop>
    <busStop id="-27283253#19:27.70" lane="-27283253#19_0" startPos="14.70" endPos="40.70" friendlyPos="true" name="Gardolo 4 Nov. Canova">
    </busStop>
    <busStop id="-27283253#13:32.76" lane="-27283253#13_0" startPos="19.76" endPos="45.76" friendlyPos="true" name="Gardolo 4 Nov. 2 Giugno">
    </busStop>
    <busStop id="-27283253#5:43.44" lane="-27283253#5_0" startPos="30.44" endPos="56.44" friendlyPos="true" name="Gardolo 4 Nov. &quot;Piscina&quot;">
    </busStop>
    <busStop id="37193968:2.09" lane="37193968_0" startPos="0.00" endPos="15.09" friendlyPos="true" name="Gardolo 4 Nov. Soprasasso">
    </busStop>
    <busStop id="24451516#0:0.00" lane="24451516#0_0" startPos="0.00" endPos="13.00" friendlyPos="true" name="Gardolo Piazza">
    </busStop>
    <busStop id="309521772#6:37.13" lane="309521772#6_0" startPos="24.13" endPos="50.13" friendlyPos="true" name="Gardolo S.Anna">
    </busStop>
    <busStop id="309521772#10:112.67" lane="309521772#10_0" startPos="99.67" endPos="125.67" friendlyPos="true" name="Gardolo S.Anna Carpenedi">
    </busStop>
    <busStop id="-309521772#10:24.70" lane="-309521772#10_0" startPos="11.70" endPos="37.70" friendlyPos="true" name="Gardolo S.Anna Carpenedi">
    </busStop>
    <busStop id="-23234595#0:51.45" lane="-23234595#0_0" startPos="38.45" endPos="64.45" friendlyPos="true" name="Verona &quot;S.Bartolameo&quot;">
    </busStop>
    <busStop id="-777291963#3:98.24" lane="-777291963#3_0" startPos="85.24" endPos="111.24" friendlyPos="true" name="Verona &quot;Questura&quot;">
    </busStop>
    <busStop id="-777291964#1:60.56" lane="-777291964#1_0" startPos="47.56" endPos="73.56" friendlyPos="true" name="Verona &quot;Big Center&quot;">
    </busStop>
    <busStop id="-118775761#0:40.54" lane="-118775761#0_0" startPos="27.54" endPos="53.54" friendlyPos="true" name="Verona &quot;Palazzo Stella&quot;">
    </busStop>
    <busStop id="23807827#1:40.38" lane="23807827#1_0" startPos="27.38" endPos="53.38" friendlyPos="true" name="Menguzzato &quot;Centro Civico&quot;">
    </busStop>
    <busStop id="-1058293024:55.74" lane="-1058293024_0" startPos="42.74" endPos="68.74" friendlyPos="true" name="Menguzzato Al Casteller">
    </busStop>
    <busStop id="-118775760#3:0.00" lane="-118775760#3_0" startPos="0.00" endPos="13.00" friendlyPos="true" name="Conci Ferrovia">
    </busStop>
    <busStop id="-37791769#0:19.51" lane="-37791769#0_0" startPos="6.51" endPos="32.51" friendlyPos="true" name="Conci De Riccabona">
    </busStop>
    <busStop id="118586374:11.52" lane="118586374_0" startPos="0.00" endPos="24.52" friendlyPos="true" name="Conci &quot;Villazzano 3&quot;">
    </busStop>
    <busStop id="-1058552709:1.82" lane="-1058552709_0" startPos="0.00" endPos="14.82" friendlyPos="true" name="Bettini &quot;Madonna Bianca&quot;">
    </busStop>
    <busStop id="-36993142#1:12.89" lane="-36993142#1_0" startPos="0.00" endPos="25.89" friendlyPos="true" name="Bettini &quot;Nido Mad. Bianca&quot;">
    </busStop>
    <busStop id="-24392334#1:31.22" lane="-24392334#1_0" startPos="18.22" endPos="44.22" friendlyPos="true" name="Verona &quot;S.Bartolameo&quot;">
    </busStop>
    <busStop id="36993142#2:30.64" lane="36993142#2_0" startPos="17.64" endPos="43.64" friendlyPos="true" name="Bettini &quot;Nido Mad. Bianca&quot;">
    </busStop>
    <busStop id="1058552707:15.03" lane="1058552707_0" startPos="2.03" endPos="28.03" friendlyPos="true" name="Bettini &quot;Madonna Bianca&quot;">
    </busStop>
    <busStop id="97084816:36.24" lane="97084816_0" startPos="23.24" endPos="49.24" friendlyPos="true" name="Conci &quot;Villazzano 3&quot;">
    </busStop>
    <busStop id="-79389049:15.93" lane="-79389049_0" startPos="2.93" endPos="28.93" friendlyPos="true" name="Oltrecastello">
    </busStop>
    <busStop id="-574541275:145.43" lane="-574541275_0" startPos="132.43" endPos="158.43" friendlyPos="true" name="Spré S.Lucia">
    </busStop>
    <busStop id="-80375838#6:28.29" lane="-80375838#6_0" startPos="15.29" endPos="41.29" friendlyPos="true" name="Spré Pinara">
    </busStop>
    <busStop id="-80375838#2:13.02" lane="-80375838#2_0" startPos="0.02" endPos="26.02" friendlyPos="true" name="Povo &quot;Casa di Riposo&quot;">
    </busStop>
    <busStop id="-1059188626#0:27.24" lane="-1059188626#0_0" startPos="14.24" endPos="40.24" friendlyPos="true" name="Povo &quot;Polo Sociale&quot;">
    </busStop>
    <busStop id="-24226975#0:5.95" lane="-24226975#0_0" startPos="0.00" endPos="18.95" friendlyPos="true" name="Povo Piazza Manci">
    </busStop>
    <busStop id="-24435556#2:53.25" lane="-24435556#2_0" startPos="40.25" endPos="66.25" friendlyPos="true" name="Povo &quot;Centro Civico&quot;">
    </busStop>
    <busStop id="-36846952#1:77.89" lane="-36846952#1_0" startPos="64.89" endPos="90.89" friendlyPos="true" name="Povo Salé">
    </busStop>
    <busStop id="-36846951#1:158.38" lane="-36846951#1_0" startPos="145.38" endPos="171.38" friendlyPos="true" name="Povo &quot;Fac. Scienze&quot;">
    </busStop>
    <busStop id="-421813732:3.37" lane="-421813732_0" startPos="0.00" endPos="16.37" friendlyPos="true" name="Povo Valoni">
    </busStop>
    <busStop id="-461923146#1:30.22" lane="-461923146#1_0" startPos="17.22" endPos="43.22" friendlyPos="true" name="Mesiano &quot;Stazione Fs&quot;">
    </busStop>
    <busStop id="-23007976#1:68.50" lane="-23007976#1_0" startPos="55.50" endPos="81.50" friendlyPos="true" name="Mesiano &quot;Fac. Ingegneria&quot;">
    </busStop>
    <busStop id="-23004629:17.54" lane="-23004629_0" startPos="4.54" endPos="30.54" friendlyPos="true" name="Ponte Lodovico">
    </busStop>
    <busStop id="-24558722#4:0.00" lane="-24558722#4_0" startPos="0.00" endPos="13.00" friendlyPos="true" name="Venezia &quot;Corallo&quot;">
    </busStop>
    <busStop id="-109372552#1:344.62" lane="-109372552#1_0" startPos="331.62" endPos="357.62" friendlyPos="true" name="Venezia Cave">
    </busStop>
    <busStop id="823407780:22.92" lane="823407780_0" startPos="9.92" endPos="35.92" friendlyPos="true" name="Venezia &quot;Port'aquila&quot;">
    </busStop>
    <busStop id="31301718#1:3.85" lane="31301718#1_0" startPos="0.00" endPos="16.85" friendlyPos="true" name="Piazza Dante &quot;Dogana&quot;">
    </busStop>
    <busStop id="-1059188626#0:22.31" lane="-1059188626#0_0" startPos="9.31" endPos="35.31" friendlyPos="true" name="Povo &quot;Polo Sociale&quot; Cap.">
    </busStop>
    <busStop id="-574541256#0:21.29" lane="-574541256#0_0" startPos="8.29" endPos="34.29" friendlyPos="true" name="Povo Piazza Manci">
    </busStop>
    <busStop id="33168206#0:22.73" lane="33168206#0_0" startPos="9.73" endPos="35.73" friendlyPos="true" name="Povo &quot;Centro Civico&quot;">
    </busStop>
    <busStop id="-36846951#1:2.55" lane="-36846951#1_0" startPos="0.00" endPos="15.55" friendlyPos="true" name="Povo Salé">
    </busStop>
    <busStop id="-183172054:50.46" lane="-183172054_0" startPos="37.46" endPos="63.46" friendlyPos="true" name="Venezia &quot;Corallo&quot;">
    </busStop>
    <busStop id="80375838#2:106.28" lane="80375838#2_0" startPos="93.28" endPos="119.28" friendlyPos="true" name="Povo &quot;Casa di Riposo&quot;">
    </busStop>
    <busStop id="-80375838#6:21.48" lane="-80375838#6_0" startPos="8.48" endPos="34.48" friendlyPos="true" name="Spré Pinara">
    </busStop>
    <busStop id="26396256#0:0.00" lane="26396256#0_0" startPos="0.00" endPos="13.00" friendlyPos="true" name="Spré S.Lucia">
    </busStop>
    <busStop id="226235027:13.69" lane="226235027_0" startPos="0.69" endPos="26.69" friendlyPos="true" name="Oltrecastello">
    </busStop>
    <busStop id="-1059506974#0:72.36" lane="-1059506974#0_0" startPos="59.36" endPos="85.36" friendlyPos="true" name="Povo &quot;Polo Scientifico&quot; Ovest">
    </busStop>
    <busStop id="33168206#1:32.67" lane="33168206#1_0" startPos="19.67" endPos="45.67" friendlyPos="true" name="Povo Pantè">
    </busStop>
    <busStop id="51720629#3:188.27" lane="51720629#3_0" startPos="175.27" endPos="201.27" friendlyPos="true" name="M. Rossi &quot;Stella D.Mattino&quot;">
    </busStop>
    <busStop id="-37236519#0:39.42" lane="-37236519#0_0" startPos="26.42" endPos="52.42" friendlyPos="true" name="Canova Aichner">
    </busStop>
    <busStop id="1071294665#1:97.69" lane="1071294665#1_0" startPos="84.69" endPos="110.69" friendlyPos="true" name="Canova Via Della Canova">
    </busStop>
    <busStop id="-1071294666#3:2.59" lane="-1071294666#3_0" startPos="0.00" endPos="15.59" friendlyPos="true" name="Canova Paludi">
    </busStop>
    <busStop id="1057256030:22.69" lane="1057256030_0" startPos="9.69" endPos="35.69" friendlyPos="true" name="Canova Paludi">
    </busStop>
    <busStop id="132153620#8:0.00" lane="132153620#8_0" startPos="0.00" endPos="13.00" friendlyPos="true" name="Gardolo &quot;Materna Paludi&quot;">
    </busStop>
    <busStop id="24615885#2:0.00" lane="24615885#2_0" startPos="0.00" endPos="13.00" friendlyPos="true" name="Gardolo Soprasasso">
    </busStop>
    <busStop id="307407915:30.99" lane="307407915_0" startPos="17.99" endPos="43.99" friendlyPos="true" name="Gardolo P.Le Neufahrn Sud">
    </busStop>
    <busStop id="-24615885#2:10.64" lane="-24615885#2_0" startPos="0.00" endPos="23.64" friendlyPos="true" name="Gardolo Soprasasso">
    </busStop>
    <busStop id="51720629#3:0.00" lane="51720629#3_0" startPos="0.00" endPos="13.00" friendlyPos="true" name="Gardolo &quot;Stazione Ftm&quot;">
    </busStop>
    <busStop id="-126733700#6:86.12" lane="-126733700#6_0" startPos="73.12" endPos="99.12" friendlyPos="true" name="Gardolo D.Milani &quot;Piscina&quot;">
    </busStop>
    <busStop id="-126733700#1:36.98" lane="-126733700#1_0" startPos="23.98" endPos="49.98" friendlyPos="true" name="Gardolo Don Milani 8 Marzo">
    </busStop>
    <busStop id="-220921089#7:13.69" lane="-220921089#7_0" startPos="0.69" endPos="26.69" friendlyPos="true" name="Melta &quot;Case Itea&quot;">
    </busStop>
    <busStop id="-220921089#3:23.31" lane="-220921089#3_0" startPos="10.31" endPos="36.31" friendlyPos="true" name="Melta Centro">
    </busStop>
    <busStop id="75319181#2:2.26" lane="75319181#2_0" startPos="0.00" endPos="15.26" friendlyPos="true" name="Parco di Melta">
    </busStop>
    <busStop id="75319181#8:13.67" lane="75319181#8_0" startPos="0.67" endPos="26.67" friendlyPos="true" name="Centochiavi Chiocchetti">
    </busStop>
    <busStop id="25874135#0:13.69" lane="25874135#0_0" startPos="0.69" endPos="26.69" friendlyPos="true" name="Centochiavi Lunelli">
    </busStop>
    <busStop id="-35209303#20:8.88" lane="-35209303#20_0" startPos="0.00" endPos="21.88" friendlyPos="true" name="Solteri Largaiolli">
    </busStop>
    <busStop id="-35209303#9:22.81" lane="-35209303#9_0" startPos="9.81" endPos="35.81" friendlyPos="true" name="Solteri &quot;Nido La Trottola&quot;">
    </busStop>
    <busStop id="-35209303#1:4.35" lane="-35209303#1_0" startPos="0.00" endPos="17.35" friendlyPos="true" name="Solteri &quot;Piazzina&quot;">
    </busStop>
    <busStop id="-1055765965#2:0.00" lane="-1055765965#2_0" startPos="0.00" endPos="13.00" friendlyPos="true" name="Marconi Solteri">
    </busStop>
    <busStop id="-36775992#1:43.33" lane="-36775992#1_0" startPos="30.33" endPos="56.33" friendlyPos="true" name="Brennero Marconi">
    </busStop>
    <busStop id="97286587#1:31.21" lane="97286587#1_0" startPos="18.21" endPos="44.21" friendlyPos="true" name="Gardolo P.Le Neufahrn Sud">
    </busStop>
    <busStop id="-51720629#3:76.08" lane="-51720629#3_0" startPos="63.08" endPos="89.08" friendlyPos="true" name="M. Rossi &quot;Stella D.Mattino&quot;">
    </busStop>
    <busStop id="25874258#0:97.59" lane="25874258#0_0" startPos="84.59" endPos="110.59" friendlyPos="true" name="Gardolo &quot;Cimitero&quot;">
    </busStop>
    <busStop id="72847149:0.31" lane="72847149_0" startPos="0.00" endPos="13.31" friendlyPos="true" name="Piazza Dante &quot;Palazzo Pat&quot;">
    </busStop>
    <busStop id="27742894:35.65" lane="27742894_0" startPos="22.65" endPos="48.65" friendlyPos="true" name="Gazzoletti Piazza Dante">
    </busStop>
    <busStop id="-23795382:24.16" lane="-23795382_0" startPos="11.16" endPos="37.16" friendlyPos="true" name="Castello Buonconsiglio">
    </busStop>
    <busStop id="24755681#0:17.35" lane="24755681#0_0" startPos="4.35" endPos="30.35" friendlyPos="true" name="S.Francesco Porta Nuova">
    </busStop>
    <busStop id="23951161:24.21" lane="23951161_0" startPos="11.21" endPos="37.21" friendlyPos="true" name="Piave &quot;Parco S.Chiara&quot;">
    </busStop>
    <busStop id="-24443793#1:65.13" lane="-24443793#1_0" startPos="52.13" endPos="78.13" friendlyPos="true" name="Dei Mille &quot;Villa Igea&quot;">
    </busStop>
    <busStop id="24443801#0:24.75" lane="24443801#0_0" startPos="11.75" endPos="37.75" friendlyPos="true" name="Gorizia Adamello">
    </busStop>
    <busStop id="42288373#0:0.02" lane="42288373#0_0" startPos="0.00" endPos="13.02" friendlyPos="true" name="Bolghera &quot;S.Antonio&quot;">
    </busStop>
    <busStop id="97251509#2:25.60" lane="97251509#2_0" startPos="12.60" endPos="38.60" friendlyPos="true" name="Gocciadoro &quot;Poliambulatori&quot;">
    </busStop>
    <busStop id="97121839#0:16.45" lane="97121839#0_0" startPos="3.45" endPos="29.45" friendlyPos="true" name="Gocciadoro &quot;Arcate&quot;">
    </busStop>
    <busStop id="35209303#1:46.77" lane="35209303#1_0" startPos="33.77" endPos="59.77" friendlyPos="true" name="Solteri &quot;Piazzina&quot;">
    </busStop>
    <busStop id="35209303#10:22.13" lane="35209303#10_0" startPos="9.13" endPos="35.13" friendlyPos="true" name="Solteri &quot;Nido La Trottola&quot;">
    </busStop>
    <busStop id="35209303#20:62.21" lane="35209303#20_0" startPos="49.21" endPos="75.21" friendlyPos="true" name="Solteri Largaiolli">
    </busStop>
    <busStop id="78455789#1:20.55" lane="78455789#1_0" startPos="7.55" endPos="33.55" friendlyPos="true" name="Guardini Gilli">
    </busStop>
    <busStop id="-25874135#0:77.69" lane="-25874135#0_0" startPos="64.69" endPos="90.69" friendlyPos="true" name="Lunelli Centochiavi">
    </busStop>
    <busStop id="-75319181#4:0.00" lane="-75319181#4_0" startPos="0.00" endPos="13.00" friendlyPos="true" name="Centochiavi Dalla Fior">
    </busStop>
    <busStop id="-75319181#2:125.72" lane="-75319181#2_0" startPos="112.72" endPos="138.72" friendlyPos="true" name="Parco di Melta">
    </busStop>
    <busStop id="25572594#1:55.36" lane="25572594#1_0" startPos="42.36" endPos="68.36" friendlyPos="true" name="Melta Centro">
    </busStop>
    <busStop id="220921089#7:66.63" lane="220921089#7_0" startPos="53.63" endPos="79.63" friendlyPos="true" name="Melta &quot;Case Itea&quot;">
    </busStop>
    <busStop id="126733700#1:0.17" lane="126733700#1_0" startPos="0.00" endPos="13.17" friendlyPos="true" name="Gardolo Don Milani 8 Marzo">
    </busStop>
    <busStop id="126733700#6:5.69" lane="126733700#6_0" startPos="0.00" endPos="18.69" friendlyPos="true" name="Gardolo D.Milani &quot;Piscina&quot;">
    </busStop>
    <busStop id="1057256025#1:46.74" lane="1057256025#1_0" startPos="33.74" endPos="59.74" friendlyPos="true" name="Gocciadoro &quot;Arcate&quot;">
    </busStop>
    <busStop id="24400261:53.45" lane="24400261_0" startPos="40.45" endPos="66.45" friendlyPos="true" name="Gerola &quot;Ospedale S.Chiara&quot;">
    </busStop>
    <busStop id="24443807#1:24.03" lane="24443807#1_0" startPos="11.03" endPos="37.03" friendlyPos="true" name="Adamello Gorizia">
    </busStop>
    <busStop id="24443793#1:0.41" lane="24443793#1_0" startPos="0.00" endPos="13.41" friendlyPos="true" name="Dei Mille &quot;Villa Igea&quot;">
    </busStop>
    <busStop id="23763170#0:48.30" lane="23763170#0_0" startPos="35.30" endPos="61.30" friendlyPos="true" name="Brigata Acqui &quot;Itc Tambosi&quot;">
    </busStop>
    <busStop id="-24479576#1:9.24" lane="-24479576#1_0" startPos="0.00" endPos="22.24" friendlyPos="true" name="S.Francesco Porta Nuova">
    </busStop>
    <busStop id="36775992#2:56.27" lane="36775992#2_0" startPos="43.27" endPos="69.27" friendlyPos="true" name="Marconi Solteri">
    </busStop>
    <busStop id="132153620#6:38.39" lane="132153620#6_0" startPos="25.39" endPos="51.39" friendlyPos="true" name="Gardolo &quot;Materna Paludi&quot;">
    </busStop>
    <busStop id="-56452349#3:102.19" lane="-56452349#3_0" startPos="89.19" endPos="115.19" friendlyPos="true" name="Fermi La Clarina">
    </busStop>
    <busStop id="-307993862:19.20" lane="-307993862_0" startPos="6.20" endPos="32.20" friendlyPos="true" name="Guardini &quot;Centochiavi&quot;">
    </busStop>
    <busStop id="-78455789#0:63.01" lane="-78455789#0_0" startPos="50.01" endPos="76.01" friendlyPos="true" name="Guardini Gilli">
    </busStop>
    <busStop id="32507309#1:24.49" lane="32507309#1_0" startPos="11.49" endPos="37.49" friendlyPos="true" name="Pranzelores &quot;Top Center&quot;">
    </busStop>
    <busStop id="25572607#8:49.73" lane="25572607#8_0" startPos="36.73" endPos="62.73" friendlyPos="true" name="Pranzelores &quot;Tridente&quot;">
    </busStop>
    <busStop id="23951874:40.41" lane="23951874_0" startPos="27.41" endPos="53.41" friendlyPos="true" name="Maccani &quot;Rotatoria&quot;">
    </busStop>
    <busStop id="-97111243#1:41.52" lane="-97111243#1_0" startPos="28.52" endPos="54.52" friendlyPos="true" name="Maccani Abondi">
    </busStop>
    <busStop id="483221938#1:1.74" lane="483221938#1_0" startPos="0.00" endPos="14.74" friendlyPos="true" name="Oberziner Alpini">
    </busStop>
    <busStop id="-97111275#1:39.53" lane="-97111275#1_0" startPos="26.53" endPos="52.53" friendlyPos="true" name="F.Lli Fontana Gen. Cantore">
    </busStop>
    <busStop id="97111267#1:69.31" lane="97111267#1_0" startPos="56.31" endPos="82.31" friendlyPos="true" name="Madonna Bianca &quot;Man&quot;">
    </busStop>
    <busStop id="97111267#6:20.74" lane="97111267#6_0" startPos="7.74" endPos="33.74" friendlyPos="true" name="Stella &quot;S.Gaetano&quot;">
    </busStop>
    <busStop id="1058552722#0:0.00" lane="1058552722#0_0" startPos="0.00" endPos="13.00" friendlyPos="true" name="Roncafort Bettine">
    </busStop>
    <busStop id="1058552722#2:129.27" lane="1058552722#2_0" startPos="116.27" endPos="142.27" friendlyPos="true" name="Caneppele Goio">
    </busStop>
    <busStop id="453534197:63.03" lane="453534197_0" startPos="50.03" endPos="76.03" friendlyPos="true" name="Maccani Commercio">
    </busStop>
    <busStop id="1058552721#0:0.00" lane="1058552721#0_0" startPos="0.00" endPos="13.00" friendlyPos="true" name="Maccani &quot;Polizia Locale&quot;">
    </busStop>
    <busStop id="571994467#0:56.64" lane="571994467#0_0" startPos="43.64" endPos="69.64" friendlyPos="true" name="Maccani &quot;Ex Sloi&quot;">
    </busStop>
    <busStop id="571994467#2:142.66" lane="571994467#2_0" startPos="129.66" endPos="155.66" friendlyPos="true" name="Maccani Campotrentino">
    </busStop>
    <busStop id="-483221956:0.00" lane="-483221956_0" startPos="0.00" endPos="13.00" friendlyPos="true" name="Maccani Abondi">
    </busStop>
    <busStop id="97111267#8:183.36" lane="97111267#8_0" startPos="170.36" endPos="196.36" friendlyPos="true" name="Stella Marighetto">
    </busStop>
    <busStop id="187869371#1:62.21" lane="187869371#1_0" startPos="49.21" endPos="75.21" friendlyPos="true" name="Madonna Bianca &quot;S.Gaetano&quot;">
    </busStop>
    <busStop id="23913962:45.57" lane="23913962_0" startPos="32.57" endPos="58.57" friendlyPos="true" name="Verona Menguzzato">
    </busStop>
    <busStop id="23858004#0:27.18" lane="23858004#0_0" startPos="14.18" endPos="40.18" friendlyPos="true" name="Piazza Centa">
    </busStop>
    <busStop id="97111275#0:63.93" lane="97111275#0_0" startPos="50.93" endPos="76.93" friendlyPos="true" name="F.Lli Fontana Gen. Cantore">
    </busStop>
    <busStop id="974959834:82.20" lane="974959834_0" startPos="69.20" endPos="95.20" friendlyPos="true" name="Degli Alpini Oberziner">
    </busStop>
    <busStop id="-483221966:0.00" lane="-483221966_0" startPos="0.00" endPos="13.00" friendlyPos="true" name="Maccani Abondi">
    </busStop>
    <busStop id="-23951874:48.63" lane="-23951874_0" startPos="35.63" endPos="61.63" friendlyPos="true" name="Maccani &quot;Rotatoria&quot;">
    </busStop>
    <busStop id="25874513#3:26.53" lane="25874513#3_0" startPos="13.53" endPos="39.53" friendlyPos="true" name="Trener &quot;3 Torri Pat&quot;">
    </busStop>
    <busStop id="24443789#0:27.56" lane="24443789#0_0" startPos="14.56" endPos="40.56" friendlyPos="true" name="F.Lli Perini 3 Novembre">
    </busStop>
    <busStop id="24226872#2:37.84" lane="24226872#2_0" startPos="24.84" endPos="50.84" friendlyPos="true" name="S.Pio X Largo Prati">
    </busStop>
    <busStop id="24226872#10:10.76" lane="24226872#10_0" startPos="0.00" endPos="23.76" friendlyPos="true" name="S.Pio X Benevoli">
    </busStop>
    <busStop id="-23888166#11:34.58" lane="-23888166#11_0" startPos="21.58" endPos="47.58" friendlyPos="true" name="Degasperi Anna Frank">
    </busStop>
    <busStop id="-23888166#2:89.92" lane="-23888166#2_0" startPos="76.92" endPos="102.92" friendlyPos="true" name="Degasperi La Clarina">
    </busStop>
    <busStop id="23913967#2:25.10" lane="23913967#2_0" startPos="12.10" endPos="38.10" friendlyPos="true" name="Degasperi &quot;Big Center&quot;">
    </busStop>
    <busStop id="991646982#1:98.31" lane="991646982#1_0" startPos="85.31" endPos="111.31" friendlyPos="true" name="Degasperi &quot;Palazzo Stella&quot;">
    </busStop>