<?xml version="1.0" encoding="UTF-8"?>

<!-- generated on 2022-07-16 19:20:13.698387 by gtfs2pt.py v1_14_0+0002-ebd7f0b131e
  options: -n osm.net.xml <doubleminus>gtfs TT-GTFS.zip <doubleminus>date 20220715 <doubleminus>modes bus <doubleminus>vtype-output pt_vtypes.xml
-->

<routes xmlns:xsi="http://www.w3.org/2001/XMLSchema-instance" xsi:noNamespaceSchemaLocation="http://sumo.dlr.de/xsd/routes_file.xsd">
    <vehicle id="l3_d08:00_r0003720522022061120220911" route="0003720522022061120220911" type="bus" depart="28850" line="3_0003720522022061120220911"/>
    <vehicle id="l3_d06:56_r0003723092022061120220911" route="0003723092022061120220911" type="bus" depart="25010" line="3_0003723092022061120220911"/>
    <vehicle id="l3_d07:36_r0003723102022061120220911" route="0003723102022061120220911" type="bus" depart="27410" line="3_0003723102022061120220911"/>
    <vehicle id="l3_d07:56_r0003723112022061120220911" route="0003723102022061120220911" type="bus" depart="28610" line="3_0003723102022061120220911"/>
    <vehicle id="l3_d08:16_r0003723122022061120220911" route="0003723102022061120220911" type="bus" depart="29810" line="3_0003723102022061120220911"/>
    <vehicle id="l3_d07:12_r0003723132022061120220911" route="0003723132022061120220911" type="bus" depart="25970" line="3_0003723132022061120220911"/>
    <vehicle id="l3_d20:26_r0003723142022061120220911" route="0003723142022061120220911" type="bus" depart="73610" line="3_0003723142022061120220911"/>
    <vehicle id="l3_d06:32_r0003723152022061120220911" route="0003723152022061120220911" type="bus" depart="23570" line="3_0003723152022061120220911"/>
    <vehicle id="l3_d07:10_r0003723162022061120220911" route="0003723162022061120220911" type="bus" depart="25850" line="3_0003723162022061120220911"/>
    <vehicle id="l3_d12:04_r0003723172022061120220911" route="0003723172022061120220911" type="bus" depart="43490" line="3_0003723172022061120220911"/>
    <vehicle id="l3_d07:06_r0003723292022061120220911" route="0003723292022061120220911" type="bus" depart="25610" line="3_0003723292022061120220911"/>
    <vehicle id="l3_d09:06_r0003723302022061120220911" route="0003723292022061120220911" type="bus" depart="32810" line="3_0003723292022061120220911"/>
    <vehicle id="l3_d08:26_r0003723312022061120220911" route="0003723292022061120220911" type="bus" depart="30410" line="3_0003723292022061120220911"/>
    <vehicle id="l3_d10:26_r0003723322022061120220911" route="0003723292022061120220911" type="bus" depart="37610" line="3_0003723292022061120220911"/>
    <vehicle id="l3_d12:26_r0003723332022061120220911" route="0003723292022061120220911" type="bus" depart="44810" line="3_0003723292022061120220911"/>
    <vehicle id="l3_d14:26_r0003723342022061120220911" route="0003723292022061120220911" type="bus" depart="52010" line="3_0003723292022061120220911"/>
    <vehicle id="l3_d11:06_r0003723352022061120220911" route="0003723292022061120220911" type="bus" depart="40010" line="3_0003723292022061120220911"/>
    <vehicle id="l3_d13:06_r0003723362022061120220911" route="0003723292022061120220911" type="bus" depart="47210" line="3_0003723292022061120220911"/>
    <vehicle id="l3_d15:06_r0003723372022061120220911" route="0003723292022061120220911" type="bus" depart="54410" line="3_0003723292022061120220911"/>
    <vehicle id="l3_d17:06_r0003723382022061120220911" route="0003723292022061120220911" type="bus" depart="61610" line="3_0003723292022061120220911"/>
    <vehicle id="l3_d19:06_r0003723392022061120220911" route="0003723292022061120220911" type="bus" depart="68810" line="3_0003723292022061120220911"/>
    <vehicle id="l3_d05:37_r0003723402022061120220911" route="0003723292022061120220911" type="bus" depart="20270" line="3_0003723292022061120220911"/>
    <vehicle id="l3_d07:46_r0003723412022061120220911" route="0003723292022061120220911" type="bus" depart="28010" line="3_0003723292022061120220911"/>
    <vehicle id="l3_d09:46_r0003723422022061120220911" route="0003723292022061120220911" type="bus" depart="35210" line="3_0003723292022061120220911"/>
    <vehicle id="l3_d11:46_r0003723432022061120220911" route="0003723292022061120220911" type="bus" depart="42410" line="3_0003723292022061120220911"/>
    <vehicle id="l3_d13:46_r0003723442022061120220911" route="0003723292022061120220911" type="bus" depart="49610" line="3_0003723292022061120220911"/>
    <vehicle id="l3_d15:46_r0003723452022061120220911" route="0003723292022061120220911" type="bus" depart="56810" line="3_0003723292022061120220911"/>
    <vehicle id="l3_d17:46_r0003723462022061120220911" route="0003723292022061120220911" type="bus" depart="64010" line="3_0003723292022061120220911"/>
    <vehicle id="l3_d19:46_r0003723472022061120220911" route="0003723292022061120220911" type="bus" depart="71210" line="3_0003723292022061120220911"/>
    <vehicle id="l3_d16:26_r0003723482022061120220911" route="0003723292022061120220911" type="bus" depart="59210" line="3_0003723292022061120220911"/>
    <vehicle id="l3_d18:26_r0003723492022061120220911" route="0003723292022061120220911" type="bus" depart="66410" line="3_0003723292022061120220911"/>
    <vehicle id="l3_d06:16_r0003723502022061120220911" route="0003723292022061120220911" type="bus" depart="22610" line="3_0003723292022061120220911"/>
    <vehicle id="l3_d11:51_r0003723512022061120220911" route="0003723512022061120220911" type="bus" depart="42710" line="3_0003723512022061120220911"/>
    <vehicle id="l3_d12:36_r0003723522022061120220911" route="0003723522022061120220911" type="bus" depart="45410" line="3_0003723522022061120220911"/>
    <vehicle id="l3_d10:06_r0003723532022061120220911" route="0003723522022061120220911" type="bus" depart="36410" line="3_0003723522022061120220911"/>
    <vehicle id="l3_d09:26_r0003723542022061120220911" route="0003723522022061120220911" type="bus" depart="34010" line="3_0003723522022061120220911"/>
    <vehicle id="l3_d07:26_r0003723552022061120220911" route="0003723522022061120220911" type="bus" depart="26810" line="3_0003723522022061120220911"/>
    <vehicle id="l3_d11:26_r0003723562022061120220911" route="0003723522022061120220911" type="bus" depart="41210" line="3_0003723522022061120220911"/>
    <vehicle id="l3_d13:26_r0003723572022061120220911" route="0003723522022061120220911" type="bus" depart="48410" line="3_0003723522022061120220911"/>
    <vehicle id="l3_d15:26_r0003723582022061120220911" route="0003723512022061120220911" type="bus" depart="55610" line="3_0003723512022061120220911"/>
    <vehicle id="l3_d17:26_r0003723592022061120220911" route="0003723522022061120220911" type="bus" depart="62810" line="3_0003723522022061120220911"/>
    <vehicle id="l3_d19:26_r0003723602022061120220911" route="0003723512022061120220911" type="bus" depart="70010" line="3_0003723512022061120220911"/>
    <vehicle id="l3_d08:06_r0003723612022061120220911" route="0003723522022061120220911" type="bus" depart="29210" line="3_0003723522022061120220911"/>
    <vehicle id="l3_d12:06_r0003723622022061120220911" route="0003723522022061120220911" type="bus" depart="43610" line="3_0003723522022061120220911"/>
    <vehicle id="l3_d14:06_r0003723632022061120220911" route="0003723522022061120220911" type="bus" depart="50810" line="3_0003723522022061120220911"/>
    <vehicle id="l3_d16:06_r0003723642022061120220911" route="0003723522022061120220911" type="bus" depart="58010" line="3_0003723522022061120220911"/>
    <vehicle id="l3_d18:06_r0003723652022061120220911" route="0003723512022061120220911" type="bus" depart="65210" line="3_0003723512022061120220911"/>
    <vehicle id="l3_d20:06_r0003723662022061120220911" route="0003723522022061120220911" type="bus" depart="72410" line="3_0003723522022061120220911"/>
    <vehicle id="l3_d08:46_r0003723672022061120220911" route="0003723522022061120220911" type="bus" depart="31610" line="3_0003723522022061120220911"/>
    <vehicle id="l3_d10:46_r0003723682022061120220911" route="0003723512022061120220911" type="bus" depart="38810" line="3_0003723512022061120220911"/>
    <vehicle id="l3_d12:46_r0003723692022061120220911" route="0003723512022061120220911" type="bus" depart="46010" line="3_0003723512022061120220911"/>
    <vehicle id="l3_d14:46_r0003723702022061120220911" route="0003723522022061120220911" type="bus" depart="53210" line="3_0003723522022061120220911"/>
    <vehicle id="l3_d16:46_r0003723712022061120220911" route="0003723512022061120220911" type="bus" depart="60410" line="3_0003723512022061120220911"/>
    <vehicle id="l3_d18:46_r0003723722022061120220911" route="0003723522022061120220911" type="bus" depart="67610" line="3_0003723522022061120220911"/>
    <vehicle id="l3_d20:46_r0003723732022061120220911" route="0003723522022061120220911" type="bus" depart="74810" line="3_0003723522022061120220911"/>
    <vehicle id="l3_d13:45_r0003729462022061120220911" route="0003729462022061120220911" type="bus" depart="49550" line="3_0003729462022061120220911"/>
    <vehicle id="l3_d05:17_r0003729472022061120220911" route="0003729472022061120220911" type="bus" depart="19070" line="3_0003729472022061120220911"/>
    <vehicle id="l3_d06:33_r0003729482022061120220911" route="0003729472022061120220911" type="bus" depart="23630" line="3_0003729472022061120220911"/>
    <vehicle id="l3_d08:35_r0003729492022061120220911" route="0003729492022061120220911" type="bus" depart="30950" line="3_0003729492022061120220911"/>
    <vehicle id="l3_d10:35_r0003729502022061120220911" route="0003729492022061120220911" type="bus" depart="38150" line="3_0003729492022061120220911"/>
    <vehicle id="l3_d14:35_r0003729512022061120220911" route="0003729492022061120220911" type="bus" depart="52550" line="3_0003729492022061120220911"/>
    <vehicle id="l3_d16:35_r0003729522022061120220911" route="0003729472022061120220911" type="bus" depart="59750" line="3_0003729472022061120220911"/>
    <vehicle id="l3_d18:35_r0003729532022061120220911" route="0003729472022061120220911" type="bus" depart="66950" line="3_0003729472022061120220911"/>
    <vehicle id="l3_d20:35_r0003729542022061120220911" route="0003729472022061120220911" type="bus" depart="74150" line="3_0003729472022061120220911"/>
    <vehicle id="l3_d09:15_r0003729552022061120220911" route="0003729472022061120220911" type="bus" depart="33350" line="3_0003729472022061120220911"/>
    <vehicle id="l3_d11:15_r0003729562022061120220911" route="0003729472022061120220911" type="bus" depart="40550" line="3_0003729472022061120220911"/>
    <vehicle id="l3_d13:15_r0003729572022061120220911" route="0003729472022061120220911" type="bus" depart="47750" line="3_0003729472022061120220911"/>
    <vehicle id="l3_d15:15_r0003729582022061120220911" route="0003729472022061120220911" type="bus" depart="54950" line="3_0003729472022061120220911"/>
    <vehicle id="l3_d17:15_r0003729592022061120220911" route="0003729472022061120220911" type="bus" depart="62150" line="3_0003729472022061120220911"/>
    <vehicle id="l3_d19:15_r0003729602022061120220911" route="0003729472022061120220911" type="bus" depart="69350" line="3_0003729472022061120220911"/>
    <vehicle id="l3_d09:55_r0003729612022061120220911" route="0003729472022061120220911" type="bus" depart="35750" line="3_0003729472022061120220911"/>
    <vehicle id="l3_d12:00_r0003729622022061120220911" route="0003729472022061120220911" type="bus" depart="43250" line="3_0003729472022061120220911"/>
    <vehicle id="l3_d13:58_r0003729632022061120220911" route="0003729492022061120220911" type="bus" depart="50330" line="3_0003729492022061120220911"/>
    <vehicle id="l3_d15:55_r0003729642022061120220911" route="0003729472022061120220911" type="bus" depart="57350" line="3_0003729472022061120220911"/>
    <vehicle id="l3_d17:55_r0003729652022061120220911" route="0003729472022061120220911" type="bus" depart="64550" line="3_0003729472022061120220911"/>
    <vehicle id="l3_d19:55_r0003729662022061120220911" route="0003729472022061120220911" type="bus" depart="71750" line="3_0003729472022061120220911"/>
    <vehicle id="l3_d12:35_r0003729672022061120220911" route="0003729472022061120220911" type="bus" depart="45350" line="3_0003729472022061120220911"/>
    <vehicle id="l3_d06:05_r0003729682022061120220911" route="0003729472022061120220911" type="bus" depart="21950" line="3_0003729472022061120220911"/>
    <vehicle id="l3_d07:15_r0003729692022061120220911" route="0003729472022061120220911" type="bus" depart="26150" line="3_0003729472022061120220911"/>
    <vehicle id="l3_d06:20_r0003729702022061120220911" route="0003729492022061120220911" type="bus" depart="22850" line="3_0003729492022061120220911"/>
    <vehicle id="l3_d07:35_r0003729712022061120220911" route="0003729492022061120220911" type="bus" depart="27350" line="3_0003729492022061120220911"/>
    <vehicle id="l3_d08:00_r0003729722022061120220911" route="0003729472022061120220911" type="bus" depart="28850" line="3_0003729472022061120220911"/>
    <vehicle id="l3_d18:15_r0003729732022061120220911" route="0003729732022061120220911" type="bus" depart="65750" line="3_0003729732022061120220911"/>
    <vehicle id="l3_d20:15_r0003729742022061120220911" route="0003729732022061120220911" type="bus" depart="72950" line="3_0003729732022061120220911"/>
    <vehicle id="l3_d11:35_r0003729752022061120220911" route="0003729732022061120220911" type="bus" depart="41750" line="3_0003729732022061120220911"/>
    <vehicle id="l3_d13:35_r0003729762022061120220911" route="0003729732022061120220911" type="bus" depart="48950" line="3_0003729732022061120220911"/>
    <vehicle id="l3_d15:35_r0003729772022061120220911" route="0003729732022061120220911" type="bus" depart="56150" line="3_0003729732022061120220911"/>
    <vehicle id="l3_d17:35_r0003729782022061120220911" route="0003729732022061120220911" type="bus" depart="63350" line="3_0003729732022061120220911"/>
    <vehicle id="l3_d19:35_r0003729792022061120220911" route="0003729732022061120220911" type="bus" depart="70550" line="3_0003729732022061120220911"/>
    <vehicle id="l3_d07:00_r0003729802022061120220911" route="0003729802022061120220911" type="bus" depart="25250" line="3_0003729802022061120220911"/>
    <vehicle id="l3_d08:55_r0003729812022061120220911" route="0003729732022061120220911" type="bus" depart="32150" line="3_0003729732022061120220911"/>
    <vehicle id="l3_d10:55_r0003729822022061120220911" route="0003729732022061120220911" type="bus" depart="39350" line="3_0003729732022061120220911"/>
    <vehicle id="l3_d12:55_r0003729832022061120220911" route="0003729732022061120220911" type="bus" depart="46550" line="3_0003729732022061120220911"/>
    <vehicle id="l3_d14:55_r0003729842022061120220911" route="0003729732022061120220911" type="bus" depart="53750" line="3_0003729732022061120220911"/>
    <vehicle id="l3_d16:55_r0003729852022061120220911" route="0003729732022061120220911" type="bus" depart="60950" line="3_0003729732022061120220911"/>
    <vehicle id="l3_d18:55_r0003729862022061120220911" route="0003729732022061120220911" type="bus" depart="68150" line="3_0003729732022061120220911"/>
    <vehicle id="l3_d07:25_r0003729872022061120220911" route="0003729732022061120220911" type="bus" depart="26750" line="3_0003729732022061120220911"/>
    <vehicle id="l3_d09:35_r0003729882022061120220911" route="0003729802022061120220911" type="bus" depart="34550" line="3_0003729802022061120220911"/>
    <vehicle id="l3_d08:15_r0003729892022061120220911" route="0003729732022061120220911" type="bus" depart="29750" line="3_0003729732022061120220911"/>
    <vehicle id="l3_d10:15_r0003729902022061120220911" route="0003729732022061120220911" type="bus" depart="36950" line="3_0003729732022061120220911"/>
    <vehicle id="l3_d12:15_r0003729912022061120220911" route="0003729732022061120220911" type="bus" depart="44150" line="3_0003729732022061120220911"/>
    <vehicle id="l3_d14:15_r0003729922022061120220911" route="0003729732022061120220911" type="bus" depart="51350" line="3_0003729732022061120220911"/>
    <vehicle id="l3_d16:15_r0003729932022061120220911" route="0003729732022061120220911" type="bus" depart="58550" line="3_0003729732022061120220911"/>
    <vehicle id="l3_d06:48_r0003729942022061120220911" route="0003729472022061120220911" type="bus" depart="24530" line="3_0003729472022061120220911"/>
    <vehicle id="l3_d07:50_r0003735462022061120220911" route="0003735462022061120220911" type="bus" depart="28250" line="3_0003735462022061120220911"/>
    <vehicle id="l3_d20:55_r0003739302022061120220911" route="0003729732022061120220911" type="bus" depart="75350" line="3_0003729732022061120220911"/>
    <vehicle id="l3_d21:14_r0003739502022061120220911" route="0003739502022061120220911" type="bus" depart="76490" line="3_0003739502022061120220911"/>
    <vehicle id="l3_d23:14_r0003739512022061120220911" route="0003739502022061120220911" type="bus" depart="83690" line="3_0003739502022061120220911"/>
    <vehicle id="l3_d22:25_r0003739522022061120220911" route="0003739522022061120220911" type="bus" depart="80750" line="3_0003739522022061120220911"/>
    <vehicle id="l3_d22:55_r0003739532022061120220911" route="0003739522022061120220911" type="bus" depart="82550" line="3_0003739522022061120220911"/>
    <vehicle id="l3_d21:44_r0003739542022061120220911" route="0003739502022061120220911" type="bus" depart="78290" line="3_0003739502022061120220911"/>
    <vehicle id="l3_d21:25_r0003739552022061120220911" route="0003739522022061120220911" type="bus" depart="77150" line="3_0003739522022061120220911"/>
    <vehicle id="l3_d23:25_r0003739562022061120220911" route="0003739522022061120220911" type="bus" depart="84350" line="3_0003739522022061120220911"/>
    <vehicle id="l3_d22:14_r0003739572022061120220911" route="0003739502022061120220911" type="bus" depart="80090" line="3_0003739502022061120220911"/>
    <vehicle id="l3_d21:55_r0003739582022061120220911" route="0003739522022061120220911" type="bus" depart="78950" line="3_0003739522022061120220911"/>
    <vehicle id="l3_d22:44_r0003739592022061120220911" route="0003739502022061120220911" type="bus" depart="81890" line="3_0003739502022061120220911"/>
    <vehicle id="l5_d06:05_r0003718662022061120220911" route="0003718662022061120220911" type="bus" depart="21950" line="5_0003718662022061120220911"/>
    <vehicle id="l5_d07:14_r0003718672022061120220911" route="0003718662022061120220911" type="bus" depart="26090" line="5_0003718662022061120220911"/>
    <vehicle id="l5_d07:31_r0003718682022061120220911" route="0003718662022061120220911" type="bus" depart="27110" line="5_0003718662022061120220911"/>
    <vehicle id="l5_d06:51_r0003719272022061120220911" route="0003718662022061120220911" type="bus" depart="24710" line="5_0003718662022061120220911"/>
    <vehicle id="l5_d08:16_r0003719282022061120220911" route="0003718662022061120220911" type="bus" depart="29810" line="5_0003718662022061120220911"/>
    <vehicle id="l5_d08:36_r0003719292022061120220911" route="0003718662022061120220911" type="bus" depart="31010" line="5_0003718662022061120220911"/>
    <vehicle id="l5_d07:56_r0003719302022061120220911" route="0003718662022061120220911" type="bus" depart="28610" line="5_0003718662022061120220911"/>
    <vehicle id="l5_d08:56_r0003719312022061120220911" route="0003718662022061120220911" type="bus" depart="32210" line="5_0003718662022061120220911"/>
    <vehicle id="l5_d09:56_r0003719322022061120220911" route="0003718662022061120220911" type="bus" depart="35810" line="5_0003718662022061120220911"/>
    <vehicle id="l5_d10:56_r0003719332022061120220911" route="0003718662022061120220911" type="bus" depart="39410" line="5_0003718662022061120220911"/>
    <vehicle id="l5_d11:56_r0003719342022061120220911" route="0003718662022061120220911" type="bus" depart="43010" line="5_0003718662022061120220911"/>
    <vehicle id="l5_d12:56_r0003719352022061120220911" route="0003718662022061120220911" type="bus" depart="46610" line="5_0003718662022061120220911"/>
    <vehicle id="l5_d13:56_r0003719362022061120220911" route="0003718662022061120220911" type="bus" depart="50210" line="5_0003718662022061120220911"/>
    <vehicle id="l5_d14:56_r0003719372022061120220911" route="0003718662022061120220911" type="bus" depart="53810" line="5_0003718662022061120220911"/>
    <vehicle id="l5_d15:56_r0003719382022061120220911" route="0003718662022061120220911" type="bus" depart="57410" line="5_0003718662022061120220911"/>
    <vehicle id="l5_d16:56_r0003719392022061120220911" route="0003718662022061120220911" type="bus" depart="61010" line="5_0003718662022061120220911"/>
    <vehicle id="l5_d17:56_r0003719402022061120220911" route="0003718662022061120220911" type="bus" depart="64610" line="5_0003718662022061120220911"/>
    <vehicle id="l5_d18:56_r0003719412022061120220911" route="0003718662022061120220911" type="bus" depart="68210" line="5_0003718662022061120220911"/>
    <vehicle id="l5_d19:56_r0003719422022061120220911" route="0003718662022061120220911" type="bus" depart="71810" line="5_0003718662022061120220911"/>
    <vehicle id="l5_d09:16_r0003719432022061120220911" route="0003718662022061120220911" type="bus" depart="33410" line="5_0003718662022061120220911"/>
    <vehicle id="l5_d10:16_r0003719442022061120220911" route="0003718662022061120220911" type="bus" depart="37010" line="5_0003718662022061120220911"/>
    <vehicle id="l5_d11:16_r0003719452022061120220911" route="0003718662022061120220911" type="bus" depart="40610" line="5_0003718662022061120220911"/>
    <vehicle id="l5_d12:16_r0003719462022061120220911" route="0003718662022061120220911" type="bus" depart="44210" line="5_0003718662022061120220911"/>
    <vehicle id="l5_d13:16_r0003719472022061120220911" route="0003718662022061120220911" type="bus" depart="47810" line="5_0003718662022061120220911"/>
    <vehicle id="l5_d15:16_r0003719492022061120220911" route="0003718662022061120220911" type="bus" depart="55010" line="5_0003718662022061120220911"/>
    <vehicle id="l5_d16:16_r0003719502022061120220911" route="0003718662022061120220911" type="bus" depart="58610" line="5_0003718662022061120220911"/>
    <vehicle id="l5_d17:16_r0003719512022061120220911" route="0003718662022061120220911" type="bus" depart="62210" line="5_0003718662022061120220911"/>
    <vehicle id="l5_d18:16_r0003719522022061120220911" route="0003718662022061120220911" type="bus" depart="65810" line="5_0003718662022061120220911"/>
    <vehicle id="l5_d19:16_r0003719532022061120220911" route="0003718662022061120220911" type="bus" depart="69410" line="5_0003718662022061120220911"/>
    <vehicle id="l5_d20:16_r0003719542022061120220911" route="0003718662022061120220911" type="bus" depart="73010" line="5_0003718662022061120220911"/>
    <vehicle id="l5_d09:36_r0003719552022061120220911" route="0003718662022061120220911" type="bus" depart="34610" line="5_0003718662022061120220911"/>
    <vehicle id="l5_d10:36_r0003719562022061120220911" route="0003718662022061120220911" type="bus" depart="38210" line="5_0003718662022061120220911"/>
    <vehicle id="l5_d11:36_r0003719572022061120220911" route="0003718662022061120220911" type="bus" depart="41810" line="5_0003718662022061120220911"/>
    <vehicle id="l5_d12:36_r0003719582022061120220911" route="0003718662022061120220911" type="bus" depart="45410" line="5_0003718662022061120220911"/>
    <vehicle id="l5_d13:36_r0003719592022061120220911" route="0003718662022061120220911" type="bus" depart="49010" line="5_0003718662022061120220911"/>
    <vehicle id="l5_d14:36_r0003719602022061120220911" route="0003718662022061120220911" type="bus" depart="52610" line="5_0003718662022061120220911"/>
    <vehicle id="l5_d15:36_r0003719612022061120220911" route="0003718662022061120220911" type="bus" depart="56210" line="5_0003718662022061120220911"/>
    <vehicle id="l5_d16:36_r0003719622022061120220911" route="0003718662022061120220911" type="bus" depart="59810" line="5_0003718662022061120220911"/>
    <vehicle id="l5_d17:36_r0003719632022061120220911" route="0003718662022061120220911" type="bus" depart="63410" line="5_0003718662022061120220911"/>
    <vehicle id="l5_d18:36_r0003719642022061120220911" route="0003718662022061120220911" type="bus" depart="67010" line="5_0003718662022061120220911"/>
    <vehicle id="l5_d19:36_r0003719652022061120220911" route="0003718662022061120220911" type="bus" depart="70610" line="5_0003718662022061120220911"/>
    <vehicle id="l5_d20:36_r0003719662022061120220911" route="0003718662022061120220911" type="bus" depart="74210" line="5_0003718662022061120220911"/>
    <vehicle id="l5_d19:35_r0003726772022061120220911" route="0003726772022061120220911" type="bus" depart="70550" line="5_0003726772022061120220911"/>
    <vehicle id="l5_d21:06_r0003739682022061120220911" route="0003718662022061120220911" type="bus" depart="76010" line="5_0003718662022061120220911"/>
    <vehicle id="l5_d22:06_r0003739692022061120220911" route="0003718662022061120220911" type="bus" depart="79610" line="5_0003718662022061120220911"/>
    <vehicle id="l5_d23:06_r0003739702022061120220911" route="0003718662022061120220911" type="bus" depart="83210" line="5_0003718662022061120220911"/>
    <vehicle id="l5_d08:37_r0003740942022061120220911" route="0003740942022061120220911" type="bus" depart="31070" line="5_0003740942022061120220911"/>
    <vehicle id="l5_d09:37_r0003740952022061120220911" route="0003740942022061120220911" type="bus" depart="34670" line="5_0003740942022061120220911"/>
    <vehicle id="l5_d08:12_r0003741022022061120220911" route="0003740942022061120220911" type="bus" depart="29570" line="5_0003740942022061120220911"/>
    <vehicle id="l5_d08:52_r0003741032022061120220911" route="0003740942022061120220911" type="bus" depart="31970" line="5_0003740942022061120220911"/>
    <vehicle id="l5_d08:16_r0003741092022061120220911" route="0003741092022061120220911" type="bus" depart="29810" line="5_0003741092022061120220911"/>
    <vehicle id="l5_d08:57_r0003741102022061120220911" route="0003740942022061120220911" type="bus" depart="32270" line="5_0003740942022061120220911"/>
    <vehicle id="l5_d16:32_r0003741172022061120220911" route="0003740942022061120220911" type="bus" depart="59570" line="5_0003740942022061120220911"/>
    <vehicle id="l5_d17:12_r0003741182022061120220911" route="0003740942022061120220911" type="bus" depart="61970" line="5_0003740942022061120220911"/>
    <vehicle id="l5_d17:52_r0003741192022061120220911" route="0003740942022061120220911" type="bus" depart="64370" line="5_0003740942022061120220911"/>
    <vehicle id="l5_d18:32_r0003741202022061120220911" route="0003740942022061120220911" type="bus" depart="66770" line="5_0003740942022061120220911"/>
    <vehicle id="l5_d17:32_r0003741262022061120220911" route="0003740942022061120220911" type="bus" depart="63170" line="5_0003740942022061120220911"/>
    <vehicle id="l5_d18:12_r0003741272022061120220911" route="0003740942022061120220911" type="bus" depart="65570" line="5_0003740942022061120220911"/>
    <vehicle id="l5_d16:52_r0003741282022061120220911" route="0003740942022061120220911" type="bus" depart="60770" line="5_0003740942022061120220911"/>
    <vehicle id="l5_d08:32_r0003746362022061120220911" route="0003740942022061120220911" type="bus" depart="30770" line="5_0003740942022061120220911"/>
    <vehicle id="l5_d14:16_r0003746522022061120220911" route="0003718662022061120220911" type="bus" depart="51410" line="5_0003718662022061120220911"/>
    <vehicle id="l7_d06:56_r0003718632022061120220911" route="0003718632022061120220911" type="bus" depart="25010" line="7_0003718632022061120220911"/>
    <vehicle id="l7_d05:35_r0003718702022061120220911" route="0003718702022061120220911" type="bus" depart="20150" line="7_0003718702022061120220911"/>
    <vehicle id="l7_d07:06_r0003719672022061120220911" route="0003718632022061120220911" type="bus" depart="25610" line="7_0003718632022061120220911"/>
    <vehicle id="l7_d05:52_r0003719682022061120220911" route="0003719682022061120220911" type="bus" depart="21170" line="7_0003719682022061120220911"/>
    <vehicle id="l7_d07:06_r0003722232022061120220911" route="0003722232022061120220911" type="bus" depart="25610" line="7_0003722232022061120220911"/>
    <vehicle id="l7_d05:59_r0003722242022061120220911" route="0003722242022061120220911" type="bus" depart="21590" line="7_0003722242022061120220911"/>
    <vehicle id="l7_d07:29_r0003722252022061120220911" route="0003722252022061120220911" type="bus" depart="26990" line="7_0003722252022061120220911"/>
    <vehicle id="l7_d08:39_r0003722262022061120220911" route="0003722262022061120220911" type="bus" depart="31190" line="7_0003722262022061120220911"/>
    <vehicle id="l7_d09:03_r0003722272022061120220911" route="0003722262022061120220911" type="bus" depart="32630" line="7_0003722262022061120220911"/>
    <vehicle id="l7_d11:03_r0003722282022061120220911" route="0003722262022061120220911" type="bus" depart="39830" line="7_0003722262022061120220911"/>
    <vehicle id="l7_d07:19_r0003722292022061120220911" route="0003722262022061120220911" type="bus" depart="26390" line="7_0003722262022061120220911"/>
    <vehicle id="l7_d11:27_r0003722302022061120220911" route="0003722262022061120220911" type="bus" depart="41270" line="7_0003722262022061120220911"/>
    <vehicle id="l7_d13:03_r0003722312022061120220911" route="0003722262022061120220911" type="bus" depart="47030" line="7_0003722262022061120220911"/>
    <vehicle id="l7_d14:39_r0003722322022061120220911" route="0003722262022061120220911" type="bus" depart="52790" line="7_0003722262022061120220911"/>
    <vehicle id="l7_d16:15_r0003722332022061120220911" route="0003722262022061120220911" type="bus" depart="58550" line="7_0003722262022061120220911"/>
    <vehicle id="l7_d17:51_r0003722342022061120220911" route="0003722262022061120220911" type="bus" depart="64310" line="7_0003722262022061120220911"/>