<?xml version="1.0" encoding="UTF-8"?>

<!-- generated on 2022-07-16 19:01:00.985904 by osmWebWizard.py v1_14_0+0002-ebd7f0b131e
<configuration>
    <end value="3600"/>
    <fringe-factor value="5.0"/>
    <fringe-start-attributes value="departSpeed=&quot;max&quot;"/>
    <min-distance value="600.0"/>
    <net-file value="C:\Users\gabri\Sumo\2022-07-16-19-00-19\osm.net.xml"/>
    <period value="1.3392695115161781"/>
    <route-file value="C:\Users\gabri\Sumo\2022-07-16-19-00-19\osm.bus.rou.xml"/>
    <trip-attributes value="departLane=&quot;best&quot;"/>
    <output-trip-file value="C:\Users\gabri\Sumo\2022-07-16-19-00-19\osm.bus.trips.xml"/>
    <prefix value="bus"/>
    <validate value="True"/>
    <vclass value="bus"/>
    <vehicle-class value="bus"/>
</configuration>
-->

<!-- generated on 2022-07-16 19:00:57 by Eclipse SUMO duarouter Version 1.14.0
<configuration xmlns:xsi="http://www.w3.org/2001/XMLSchema-instance" xsi:noNamespaceSchemaLocation="http://sumo.dlr.de/xsd/duarouterConfiguration.xsd">

    <input>
        <net-file value="C:\Users\gabri\Sumo\2022-07-16-19-00-19\osm.net.xml"/>
        <route-files value="C:\Users\gabri\Sumo\2022-07-16-19-00-19\osm.bus.trips.xml"/>
    </input>

    <output>
        <output-file value="C:\Users\gabri\Sumo\2022-07-16-19-00-19\osm.bus.trips.xml.tmp"/>
        <alternatives-output value="NUL"/>
        <write-trips value="true"/>
    </output>

    <time>
        <begin value="0"/>
        <end value="3600"/>
    </time>

    <report>
        <no-warnings value="true"/>
        <ignore-errors value="true"/>
        <no-step-log value="true"/>
    </report>

</configuration>
-->

<routes xmlns:xsi="http://www.w3.org/2001/XMLSchema-instance" xsi:noNamespaceSchemaLocation="http://sumo.dlr.de/xsd/routes_file.xsd">
    <vType id="bus_bus" vClass="bus"/>
    <trip id="bus0" type="bus_bus" depart="0.00" departLane="best" from="24615878" to="-118389121#1"/>
    <trip id="bus1" type="bus_bus" depart="1.34" departLane="best" from="-34865541" to="-29313547"/>
    <trip id="bus2" type="bus_bus" depart="2.68" departLane="best" departSpeed="max" from="26624979" to="27168490"/>
    <trip id="bus3" type="bus_bus" depart="4.02" departLane="best" from="-80375831#2" to="-122103278#0"/>
    <trip id="bus4" type="bus_bus" depart="5.36" departLane="best" departSpeed="max" from="-27168490" to="228147293"/>
    <trip id="bus5" type="bus_bus" depart="6.70" departLane="best" from="-114571772#2" to="-26653464"/>
    <trip id="bus6" type="bus_bus" depart="8.04" departLane="best" departSpeed="max" from="-27168500#1" to="24615880#0"/>
    <trip id="bus8" type="bus_bus" depart="10.71" departLane="best" from="32507267#2" to="28449871#2"/>
    <trip id="bus9" type="bus_bus" depart="12.05" departLane="best" from="-421806749#1" to="-25468145"/>
    <trip id="bus10" type="bus_bus" depart="13.39" departLane="best" from="80767307#0" to="-68502196"/>
    <trip id="bus11" type="bus_bus" depart="14.73" departLane="best" departSpeed="max" from="-221475938" to="-24374069"/>
    <trip id="bus12" type="bus_bus" depart="16.07" departLane="best" from="37247629" to="24802988#6"/>
    <trip id="bus13" type="bus_bus" depart="17.41" departLane="best" from="32507308#0" to="31115949"/>
    <trip id="bus14" type="bus_bus" depart="18.75" departLane="best" departSpeed="max" from="161758826" to="97006158#2"/>
    <trip id="bus15" type="bus_bus" depart="20.09" departLane="best" departSpeed="max" from="-572668378" to="24055260"/>
    <trip id="bus16" type="bus_bus" depart="21.43" departLane="best" departSpeed="max" from="36847254#0" to="24965829#1"/>
    <trip id="bus17" type="bus_bus" depart="22.77" departLane="best" from="38590701" to="24443833#1"/>
    <trip id="bus18" type="bus_bus" depart="24.11" departLane="best" departSpeed="max" from="25594795#0" to="-151230133"/>
    <trip id="bus19" type="bus_bus" depart="25.45" departLane="best" departSpeed="max" from="-27172269#2" to="-38590705#0"/>
    <trip id="bus20" type="bus_bus" depart="26.79" departLane="best" from="-191633685#5" to="-306120648"/>
    <trip id="bus21" type="bus_bus" depart="28.12" departLane="best" from="-23302058" to="-37391724#1"/>
    <trip id="bus22" type="bus_bus" depart="29.46" departLane="best" from="245017809#3" to="-85334603#11"/>
    <trip id="bus23" type="bus_bus" depart="30.80" departLane="best" departSpeed="max" from="-53198086" to="-28449808"/>
    <trip id="bus24" type="bus_bus" depart="32.14" departLane="best" departSpeed="max" from="-32507275" to="78461182"/>
    <trip id="bus25" type="bus_bus" depart="33.48" departLane="best" from="24732720#1" to="24913911#1"/>
    <trip id="bus26" type="bus_bus" depart="34.82" departLane="best" from="-25212470#1" to="309521772#4"/>
    <trip id="bus27" type="bus_bus" depart="36.16" departLane="best" departSpeed="max" from="-24914984" to="-97251505#4"/>
    <trip id="bus28" type="bus_bus" depart="37.50" departLane="best" from="97251491#2" to="25572607#1"/>
    <trip id="bus29" type="bus_bus" depart="38.84" departLane="best" from="220921089#11" to="27171059"/>
    <trip id="bus30" type="bus_bus" depart="40.18" departLane="best" departSpeed="max" from="37201433#0" to="37130311"/>
    <trip id="bus31" type="bus_bus" depart="41.52" departLane="best" from="-27283253#11" to="-122270329#2"/>
    <trip id="bus32" type="bus_bus" depart="42.86" departLane="best" from="-37917317#3" to="-36884640#0"/>
    <trip id="bus33" type="bus_bus" depart="44.20" departLane="best" from="-26601385#1" to="809727979"/>
    <trip id="bus34" type="bus_bus" depart="45.54" departLane="best" from="419226778#1" to="-497884794"/>
    <trip id="bus35" type="bus_bus" depart="46.87" departLane="best" from="24913911#1" to="1056577100"/>
    <trip id="bus36" type="bus_bus" depart="48.21" departLane="best" from="574541264#1" to="144728790#0"/>
    <trip id="bus37" type="bus_bus" depart="49.55" departLane="best" from="227756256" to="-36748357#0"/>
    <trip id="bus38" type="bus_bus" depart="50.89" departLane="best" from="23854781#2" to="66860331"/>
    <trip id="bus39" type="bus_bus" depart="52.23" departLane="best" departSpeed="max" from="-694283060#1" to="-29227429"/>
    <trip id="bus40" type="bus_bus" depart="53.57" departLane="best" from="988549251#1" to="22990333#3"/>
    <trip id="bus41" type="bus_bus" depart="54.91" departLane="best" departSpeed="max" from="-221475933" to="-155995190"/>
    <trip id="bus42" type="bus_bus" depart="56.25" departLane="best" from="-23814996#3" to="25451347#4"/>
    <trip id="bus43" type="bus_bus" depart="57.59" departLane="best" departSpeed="max" from="-161757426#2" to="-988549251#0"/>
    <trip id="bus44" type="bus_bus" depart="58.93" departLane="best" from="984089091#0" to="23854157#4"/>
    <trip id="bus45" type="bus_bus" depart="60.27" departLane="best" from="86871008" to="48655948#3"/>
    <trip id="bus46" type="bus_bus" depart="61.61" departLane="best" departSpeed="max" from="-106277596" to="307004696"/>
    <trip id="bus47" type="bus_bus" depart="62.95" departLane="best" from="25455958#1" to="23914028#1"/>
    <trip id="bus48" type="bus_bus" depart="64.28" departLane="best" from="-23888166#1" to="116455319#1"/>
    <trip id="bus49" type="bus_bus" depart="65.62" departLane="best" from="-97117414#1" to="838173995#1"/>
    <trip id="bus50" type="bus_bus" depart="66.96" departLane="best" from="41881705#5" to="-36806394#0"/>
    <trip id="bus51" type="bus_bus" depart="68.30" departLane="best" from="115091461" to="-25874271#1"/>
    <trip id="bus52" type="bus_bus" depart="69.64" departLane="best" from="571994484" to="528695739#0"/>
    <trip id="bus53" type="bus_bus" depart="70.98" departLane="best" from="-37236519#0" to="25572600#1"/>
    <trip id="bus54" type="bus_bus" depart="72.32" departLane="best" from="24226872#12" to="-25457967"/>
    <trip id="bus55" type="bus_bus" depart="73.66" departLane="best" from="29227362#0" to="23951162"/>
    <trip id="bus56" type="bus_bus" depart="75.00" departLane="best" from="299630297" to="23854781#2"/>
    <trip id="bus57" type="bus_bus" depart="76.34" departLane="best" departSpeed="max" from="-101811606" to="-571994472"/>
    <trip id="bus58" type="bus_bus" depart="77.68" departLane="best" departSpeed="max" from="-110780750" to="75687280"/>
    <trip id="bus59" type="bus_bus" depart="79.02" departLane="best" from="42285204" to="413104902"/>
    <trip id="bus60" type="bus_bus" depart="80.36" departLane="best" departSpeed="max" from="-378575456#2" to="-189295415"/>
    <trip id="bus61" type="bus_bus" depart="81.70" departLane="best" from="421806749#1" to="809934473#1"/>
    <trip id="bus62" type="bus_bus" depart="83.03" departLane="best" from="-214666813" to="201174994#3"/>
    <trip id="bus63" type="bus_bus" depart="84.37" departLane="best" from="-176477269#0" to="36869477"/>
    <trip id="bus64" type="bus_bus" depart="85.71" departLane="best" from="29227427#3" to="-24916727"/>
    <trip id="bus65" type="bus_bus" depart="87.05" departLane="best" from="1057256024#3" to="24055252#1"/>
    <trip id="bus66" type="bus_bus" depart="88.39" departLane="best" departSpeed="max" from="-32507263#1" to="53116460"/>
    <trip id="bus67" type="bus_bus" depart="89.73" departLane="best" from="-809727978#6" to="-291944934"/>
    <trip id="bus68" type="bus_bus" depart="91.07" departLane="best" from="175048641#1" to="31115950"/>
    <trip id="bus69" type="bus_bus" depart="92.41" departLane="best" from="-25792391#0" to="-48655953#0"/>
    <trip id="bus70" type="bus_bus" depart="93.75" departLane="best" from="97749768#1" to="25610197#2"/>
    <trip id="bus71" type="bus_bus" depart="95.09" departLane="best" departSpeed="max" from="-85167208" to="23671966#7"/>
    <trip id="bus72" type="bus_bus" depart="96.43" departLane="best" from="-24054414#0" to="-29313635#0"/>
    <trip id="bus73" type="bus_bus" depart="97.77" departLane="best" departSpeed="max" from="-417380259" to="24615867"/>
    <trip id="bus74" type="bus_bus" depart="99.11" departLane="best" from="-27283253#22" to="-29227437"/>
    <trip id="bus75" type="bus_bus" depart="100.45" departLane="best" from="-27283253#10" to="687017021#2"/>
    <trip id="bus76" type="bus_bus" depart="101.78" departLane="best" departSpeed="max" from="38554840" to="-23209335"/>
    <trip id="bus77" type="bus_bus" depart="103.12" departLane="best" from="-28439716#3" to="26601426#0"/>
    <trip id="bus78" type="bus_bus" depart="104.46" departLane="best" departSpeed="max" from="731948875#0" to="24443792"/>
    <trip id="bus79" type="bus_bus" depart="105.80" departLane="best" from="1055765973" to="37264574"/>
    <trip id="bus80" type="bus_bus" depart="107.14" departLane="best" from="32507309#2" to="-26624752"/>
    <trip id="bus81" type="bus_bus" depart="108.48" departLane="best" departSpeed="max" from="-228446065" to="115799480#1"/>
    <trip id="bus82" type="bus_bus" depart="109.82" departLane="best" from="-809813947#0" to="161758824"/>
    <trip id="bus83" type="bus_bus" depart="111.16" departLane="best" from="26601198" to="27168138"/>
    <trip id="bus84" type="bus_bus" depart="112.50" departLane="best" departSpeed="max" from="-731948877" to="-699090992"/>
    <trip id="bus85" type="bus_bus" depart="113.84" departLane="best" departSpeed="max" from="38588686" to="-32507309#1"/>
    <trip id="bus86" type="bus_bus" depart="115.18" departLane="best" from="-25597956#0" to="126733701"/>
    <trip id="bus87" type="bus_bus" depart="116.52" departLane="best" from="-80375831#2" to="-37480830"/>
    <trip id="bus88" type="bus_bus" depart="117.86" departLane="best" from="-303244587" to="75316419#1"/>
    <trip id="bus90" type="bus_bus" depart="120.53" departLane="best" from="194492785#0" to="-176477269#1"/>
    <trip id="bus91" type="bus_bus" depart="121.87" departLane="best" departSpeed="max" from="99496062" to="42250602#2"/>
    <trip id="bus92" type="bus_bus" depart="123.21" departLane="best" from="85334603#0" to="754578288#7"/>
    <trip id="bus93" type="bus_bus" depart="124.55" departLane="best" from="37332639#0" to="-25595203"/>
    <trip id="bus94" type="bus_bus" depart="125.89" departLane="best" from="1062496677" to="-29227248#0"/>
    <trip id="bus95" type="bus_bus" depart="127.23" departLane="best" departSpeed="max" from="-715008681#2" to="-189295418"/>
    <trip id="bus96" type="bus_bus" depart="128.57" departLane="best" from="-574483649#2" to="97236444#0"/>
    <trip id="bus97" type="bus_bus" depart="129.91" departLane="best" departSpeed="max" from="-971664255" to="112580766#1"/>
    <trip id="bus98" type="bus_bus" depart="131.25" departLane="best" from="80767307#1" to="976017774"/>
    <trip id="bus99" type="bus_bus" depart="132.59" departLane="best" from="216745512#3" to="306341971#0"/>
    <trip id="bus100" type="bus_bus" depart="133.93" departLane="best" from="-24744093#2" to="-407005413#0"/>
    <trip id="bus101" type="bus_bus" depart="135.27" departLane="best" from="85334596" to="24451516#3"/>
    <trip id="bus102" type="bus_bus" depart="136.61" departLane="best" departSpeed="max" from="183165048" to="34865543#0"/>
    <trip id="bus103" type="bus_bus" depart="137.94" departLane="best" from="-144783737#1" to="24479770#6"/>
    <trip id="bus104" type="bus_bus" depart="139.28" departLane="best" from="115799479" to="481007149#1"/>
    <trip id="bus105" type="bus_bus" depart="140.62" departLane="best" from="-24805443" to="85334586"/>
    <trip id="bus106" type="bus_bus" depart="141.96" departLane="best" from="-191633685#9" to="-26601183#3"/>
    <trip id="bus107" type="bus_bus" depart="143.30" departLane="best" from="23951873#0" to="27168214"/>
    <trip id="bus108" type="bus_bus" depart="144.64" departLane="best" departSpeed="max" from="-281914209" to="-24744093#2"/>
    <trip id="bus109" type="bus_bus" depart="145.98" departLane="best" from="480584920" to="-32225707#0"/>
    <trip id="bus110" type="bus_bus" depart="147.32" departLane="best" from="23951768#4" to="24965835#4"/>
    <trip id="bus111" type="bus_bus" depart="148.66" departLane="best" departSpeed="max" from="-78363051" to="24479769"/>
    <trip id="bus112" type="bus_bus" depart="150.00" departLane="best" from="126733700#4" to="779276776#1"/>
    <trip id="bus113" type="bus_bus" depart="151.34" departLane="best" from="-25874258#0" to="306120650#4"/>
    <trip id="bus114" type="bus_bus" depart="152.68" departLane="best" from="25215957#5" to="-421813732"/>
    <trip id="bus115" type="bus_bus" depart="154.02" departLane="best" departSpeed="max" from="-37923394#1" to="35473304#12"/>
    <trip id="bus116" type="bus_bus" depart="155.36" departLane="best" departSpeed="max" from="-183428427" to="140246291"/>
    <trip id="bus117" type="bus_bus" depart="156.69" departLane="best" from="993035146" to="97749768#7"/>
    <trip id="bus118" type="bus_bus" depart="158.03" departLane="best" from="-187869368" to="-29227229#0"/>
    <trip id="bus119" type="bus_bus" depart="159.37" departLane="best" departSpeed="max" from="-32507263#1" to="775625760"/>
    <trip id="bus120" type="bus_bus" depart="160.71" departLane="best" from="43385386#1" to="561346527#0"/>
    <trip id="bus121" type="bus_bus" depart="162.05" departLane="best" departSpeed="max" from="-53198075" to="-25468248"/>
    <trip id="bus122" type="bus_bus" depart="163.39" departLane="best" from="36969879" to="29310573#5"/>
    <trip id="bus123" type="bus_bus" depart="164.73" departLane="best" from="24374074#1" to="97251496#7"/>
    <trip id="bus125" type="bus_bus" depart="167.41" departLane="best" from="35209303#2" to="-420555593"/>
    <trip id="bus126" type="bus_bus" depart="168.75" departLane="best" from="24917219#5" to="79860157#1"/>
    <trip id="bus127" type="bus_bus" depart="170.09" departLane="best" from="-24442337#1" to="-24711288#6"/>
    <trip id="bus128" type="bus_bus" depart="171.43" departLane="best" from="-23809281#1" to="24094883#4"/>
    <trip id="bus129" type="bus_bus" depart="172.77" departLane="best" departSpeed="max" from="-342029726#1" to="248369469"/>
    <trip id="bus130" type="bus_bus" depart="174.11" departLane="best" from="25874241#0" to="-27172269#0"/>
    <trip id="bus131" type="bus_bus" depart="175.44" departLane="best" from="24479770#4" to="-36816442#0"/>
    <trip id="bus132" type="bus_bus" depart="176.78" departLane="best" from="1063621810" to="687017021#1"/>
    <trip id="bus133" type="bus_bus" depart="178.12" departLane="best" from="37246725#0" to="-24055264#1"/>
    <trip id="bus134" type="bus_bus" depart="179.46" departLane="best" from="-809813947#0" to="-37247627"/>
    <trip id="bus136" type="bus_bus" depart="182.14" departLane="best" from="24558722#9" to="-36748328"/>
    <trip id="bus137" type="bus_bus" depart="183.48" departLane="best" from="26628160" to="24055256#1"/>
    <trip id="bus138" type="bus_bus" depart="184.82" departLane="best" departSpeed="max" from="-810788546" to="-1064844930#1"/>
    <trip id="bus139" type="bus_bus" depart="186.16" departLane="best" departSpeed="max" from="-189295409" to="571994486#0"/>
    <trip id="bus140" type="bus_bus" depart="187.50" departLane="best" departSpeed="max" from="526745822" to="239818712"/>
    <trip id="bus141" type="bus_bus" depart="188.84" departLane="best" from="36989254" to="24479373#6"/>
    <trip id="bus142" type="bus_bus" depart="190.18" departLane="best" from="-24711288#1" to="-24916515#4"/>
    <trip id="bus143" type="bus_bus" depart="191.52" departLane="best" departSpeed="max" from="-378575788" to="674234529"/>
    <trip id="bus144" type="bus_bus" depart="192.85" departLane="best" from="307993862" to="48655948#3"/>
    <trip id="bus145" type="bus_bus" depart="194.19" departLane="best" from="497883317#1" to="-28449871#0"/>
    <trip id="bus146" type="bus_bus" depart="195.53" departLane="best" from="-299631530#2" to="-24443793#1"/>
    <trip id="bus147" type="bus_bus" depart="196.87" departLane="best" from="299631528#8" to="572639023"/>
    <trip id="bus148" type="bus_bus" depart="198.21" departLane="best" from="-75255314#2" to="251411894"/>
    <trip id="bus149" type="bus_bus" depart="199.55" departLane="best" from="-24744093#0" to="757289791#1"/>
    <trip id="bus150" type="bus_bus" depart="200.89" departLane="best" from="38666230" to="97111260#3"/>
    <trip id="bus151" type="bus_bus" depart="202.23" departLane="best" from="346489802#2" to="569375076"/>
    <trip id="bus152" type="bus_bus" depart="203.57" departLane="best" departSpeed="max" from="-112822117" to="322476202#1"/>
    <trip id="bus153" type="bus_bus" depart="204.91" departLane="best" departSpeed="max" from="-407005412" to="765192355#0"/>
    <trip id="bus154" type="bus_bus" depart="206.25" departLane="best" from="318408391" to="497884794"/>
    <trip id="bus155" type="bus_bus" depart="207.59" departLane="best" from="346489802#1" to="-36867850#0"/>
    <trip id="bus156" type="bus_bus" depart="208.93" departLane="best" from="306208334" to="-24479369#3"/>
    <trip id="bus157" type="bus_bus" depart="210.27" departLane="best" from="406632785#0" to="484941587"/>
    <trip id="bus158" type="bus_bus" depart="211.60" departLane="best" departSpeed="max" from="-27168508#2" to="39633232"/>
    <trip id="bus159" type="bus_bus" depart="212.94" departLane="best" departSpeed="max" from="-975718388" to="-452934477"/>
    <trip id="bus160" type="bus_bus" depart="214.28" departLane="best" from="30789851#7" to="-295396002#0"/>
    <trip id="bus161" type="bus_bus" depart="215.62" departLane="best" from="-112580729" to="-26625545#2"/>
    <trip id="bus162" type="bus_bus" depart="216.96" departLane="best" departSpeed="max" from="-399281972" to="497884796"/>
    <trip id="bus163" type="bus_bus" depart="218.30" departLane="best" from="84244334#1" to="-37577806"/>
    <trip id="bus164" type="bus_bus" depart="219.64" departLane="best" from="24696065" to="1058552713#0"/>
    <trip id="bus165" type="bus_bus" depart="220.98" departLane="best" from="97111267#8" to="23913963"/>
    <trip id="bus166" type="bus_bus" depart="222.32" departLane="best" from="75255314#3" to="-24711288#5"/>
    <trip id="bus167" type="bus_bus" depart="223.66" departLane="best" from="86060253#0" to="-25874271#0"/>
    <trip id="bus168" type="bus_bus" depart="225.00" departLane="best" from="81347663" to="-36845825#0"/>
    <trip id="bus169" type="bus_bus" depart="226.34" departLane="best" from="-23809441#3" to="116369987#1"/>
    <trip id="bus170" type="bus_bus" depart="227.68" departLane="best" from="24161661" to="23066966#1"/>
    <trip id="bus171" type="bus_bus" depart="229.02" departLane="best" departSpeed="max" from="-641184757" to="24443828"/>
    <trip id="bus172" type="bus_bus" depart="230.35" departLane="best" from="-30789846#0" to="295077252#0"/>
    <trip id="bus173" type="bus_bus" depart="231.69" departLane="best" from="-101811609#0" to="753537240"/>
    <trip id="bus176" type="bus_bus" depart="235.71" departLane="best" departSpeed="max" from="24917277#0" to="-657622075"/>
    <trip id="bus177" type="bus_bus" depart="237.05" departLane="best" from="-378577286#0" to="452934455"/>
    <trip id="bus178" type="bus_bus" depart="238.39" departLane="best" from="25874513#3" to="-42250602#1"/>
    <trip id="bus180" type="bus_bus" depart="241.07" departLane="best" departSpeed="max" from="-731948877" to="-406997803"/>
    <trip id="bus181" type="bus_bus" depart="242.41" departLane="best" from="-24226869#4" to="112091124"/>
    <trip id="bus182" type="bus_bus" depart="243.75" departLane="best" from="75282105" to="27168497#3"/>
    <trip id="bus183" type="bus_bus" depart="245.09" departLane="best" from="51764533" to="24917615#1"/>
    <trip id="bus184" type="bus_bus" depart="246.43" departLane="best" departSpeed="max" from="-37269643#1" to="24054406"/>
    <trip id="bus185" type="bus_bus" depart="247.76" departLane="best" from="-100269153#2" to="-38555044#2"/>
    <trip id="bus186" type="bus_bus" depart="249.10" departLane="best" departSpeed="max" from="-82010390" to="24454097#2"/>
    <trip id="bus187" type="bus_bus" depart="250.44" departLane="best" departSpeed="max" from="248978136" to="153639912#0"/>
    <trip id="bus188" type="bus_bus" depart="251.78" departLane="best" from="-936412753#0" to="-29227248#0"/>
    <trip id="bus189" type="bus_bus" depart="253.12" departLane="best" departSpeed="max" from="1055822519" to="68286127#3"/>
    <trip id="bus190" type="bus_bus" depart="254.46" departLane="best" from="307993861#3" to="-25610142#0"/>
    <trip id="bus191" type="bus_bus" depart="255.80" departLane="best" departSpeed="max" from="-209650346" to="235978872"/>
    <trip id="bus192" type="bus_bus" depart="257.14" departLane="best" from="24479374#0" to="-684985752#0"/>
    <trip id="bus193" type="bus_bus" depart="258.48" departLane="best" departSpeed="max" from="35327937#0" to="35220610#1"/>
    <trip id="bus194" type="bus_bus" depart="259.82" departLane="best" departSpeed="max" from="25215990" to="-29313628#0"/>
    <trip id="bus195" type="bus_bus" depart="261.16" departLane="best" from="-25703539#0" to="-117907500#0"/>
    <trip id="bus196" type="bus_bus" depart="262.50" departLane="best" departSpeed="max" from="-295075568" to="176477313#1"/>
    <trip id="bus197" type="bus_bus" depart="263.84" departLane="best" departSpeed="max" from="37391724#0" to="-236132872"/>
    <trip id="bus198" type="bus_bus" depart="265.18" departLane="best" from="-76750140" to="25456350"/>
    <trip id="bus199" type="bus_bus" depart="266.51" departLane="best" departSpeed="max" from="-25610043" to="283010968#1"/>
    <trip id="bus200" type="bus_bus" depart="267.85" departLane="best" departSpeed="max" from="110779288" to="-320176568"/>
    <trip id="bus201" type="bus_bus" depart="269.19" departLane="best" from="24914632#4" to="-105934312#0"/>
    <trip id="bus202" type="bus_bus" depart="270.53" departLane="best" departSpeed="max" from="27443811" to="37016772"/>
    <trip id="bus203" type="bus_bus" depart="271.87" departLane="best" from="-23808336#1" to="114571766#2"/>
    <trip id="bus204" type="bus_bus" depart="273.21" departLane="best" from="-25363681#2" to="84244339#0"/>
    <trip id="bus205" type="bus_bus" depart="274.55" departLane="best" departSpeed="max" from="123187196" to="-175048641#0"/>
    <trip id="bus206" type="bus_bus" depart="275.89" departLane="best" from="-299631528#8" to="452934475"/>
    <trip id="bus207" type="bus_bus" depart="277.23" departLane="best" from="-97236432#0" to="378577288"/>
    <trip id="bus208" type="bus_bus" depart="278.57" departLane="best" from="24965828#5" to="97251509#0"/>
    <trip id="bus209" type="bus_bus" depart="279.91" departLane="best" from="23951876" to="82010390"/>
    <trip id="bus210" type="bus_bus" depart="281.25" departLane="best" from="483221903" to="24916939"/>
    <trip id="bus211" type="bus_bus" depart="282.59" departLane="best" from="25874495" to="228044902"/>
    <trip id="bus212" type="bus_bus" depart="283.93" departLane="best" from="36881548#2" to="24054404#1"/>
    <trip id="bus213" type="bus_bus" depart="285.26" departLane="best" from="48655954#2" to="336901259"/>
    <trip id="bus214" type="bus_bus" depart="286.60" departLane="best" from="1056577102#1" to="-36748208"/>
    <trip id="bus215" type="bus_bus" depart="287.94" departLane="best" from="-299630297" to="25526165#1"/>
    <trip id="bus216" type="bus_bus" depart="289.28" departLane="best" from="29227427#3" to="23763851"/>
    <trip id="bus217" type="bus_bus" depart="290.62" departLane="best" from="24443831#1" to="-37201433#0"/>
    <trip id="bus218" type="bus_bus" depart="291.96" departLane="best" departSpeed="max" from="-189295570" to="-382958545#0"/>
    <trip id="bus219" type="bus_bus" depart="293.30" departLane="best" from="-34128531" to="-528695739#1"/>
    <trip id="bus220" type="bus_bus" depart="294.64" departLane="best" from="177180084" to="-25215992"/>
    <trip id="bus222" type="bus_bus" depart="297.32" departLane="best" from="25597956#4" to="-215656725"/>
    <trip id="bus223" type="bus_bus" depart="298.66" departLane="best" departSpeed="max" from="-75319139" to="23952132#1"/>
    <trip id="bus224" type="bus_bus" depart="300.00" departLane="best" departSpeed="max" from="-77021620#3" to="-27503961#2"/>
    <trip id="bus225" type="bus_bus" depart="301.34" departLane="best" from="-79384285" to="68506160"/>
    <trip id="bus226" type="bus_bus" depart="302.67" departLane="best" from="23854595#1" to="281926492#1"/>
    <trip id="bus227" type="bus_bus" depart="304.01" departLane="best" from="37923589#1" to="36987962"/>
    <trip id="bus228" type="bus_bus" depart="305.35" departLane="best" departSpeed="max" from="-574541268" to="-105934312#1"/>
    <trip id="bus229" type="bus_bus" depart="306.69" departLane="best" departSpeed="max" from="-477029510#1" to="36748222#0"/>
    <trip id="bus230" type="bus_bus" depart="308.03" departLane="best" from="378132351" to="832314551"/>
    <trip id="bus231" type="bus_bus" depart="309.37" departLane="best" departSpeed="max" from="-78363051" to="34865541"/>
    <trip id="bus233" type="bus_bus" depart="312.05" departLane="best" departSpeed="max" from="-27168500#1" to="-29227432"/>
    <trip id="bus234" type="bus_bus" depart="313.39" departLane="best" from="-84244334#0" to="-121261247"/>
    <trip id="bus235" type="bus_bus" depart="314.73" departLane="best" departSpeed="max" from="-748971925" to="-25594791#0"/>
    <trip id="bus236" type="bus_bus" depart="316.07" departLane="best" from="101811609#0" to="-24916712"/>
    <trip id="bus237" type="bus_bus" depart="317.41" departLane="best" from="24443806#1" to="-118775760#6"/>
    <trip id="bus238" type="bus_bus" depart="318.75" departLane="best" from="-684985752#6" to="24436840#1"/>
    <trip id="bus239" type="bus_bus" depart="320.09" departLane="best" from="-115029627#3" to="25594795#1"/>
    <trip id="bus240" type="bus_bus" depart="321.42" departLane="best" from="-24443785#0" to="144908755"/>
    <trip id="bus241" type="bus_bus" depart="322.76" departLane="best" departSpeed="max" from="-128165194" to="-97251505#1"/>
    <trip id="bus242" type="bus_bus" depart="324.10" departLane="best" from="-26624732#2" to="-574541273#0"/>
    <trip id="bus243" type="bus_bus" depart="325.44" departLane="best" departSpeed="max" from="29227343" to="-97251505#1"/>
    <trip id="bus244" type="bus_bus" depart="326.78" departLane="best" from="27503570" to="413104902"/>
    <trip id="bus245" type="bus_bus" depart="328.12" departLane="best" from="-306341971#8" to="-23884318#0"/>
    <trip id="bus246" type="bus_bus" depart="329.46" departLane="best" from="99961271#2" to="-77000299#0"/>
    <trip id="bus247" type="bus_bus" depart="330.80" departLane="best" from="24771360#0" to="37236519#2"/>
    <trip id="bus248" type="bus_bus" depart="332.14" departLane="best" from="24802988#2" to="36748261#1"/>
    <trip id="bus249" type="bus_bus" depart="333.48" departLane="best" departSpeed="max" from="-111646644" to="-25457905"/>
    <trip id="bus250" type="bus_bus" depart="334.82" departLane="best" from="-24161642#2" to="26624732#2"/>
    <trip id="bus251" type="bus_bus" depart="336.16" departLane="best" from="22986084#4" to="-29227422"/>
    <trip id="bus252" type="bus_bus" depart="337.50" departLane="best" from="25489509" to="36988163"/>
    <trip id="bus254" type="bus_bus" depart="340.17" departLane="best" from="27172269#1" to="-24711288#12"/>
    <trip id="bus255" type="bus_bus" depart="341.51" departLane="best" from="35473304#11" to="907871873"/>
    <trip id="bus256" type="bus_bus" depart="342.85" departLane="best" from="-23809441#0" to="-118389121#7"/>
    <trip id="bus257" type="bus_bus" depart="344.19" departLane="best" departSpeed="max" from="-378577279" to="27168497#3"/>
    <trip id="bus258" type="bus_bus" depart="345.53" departLane="best" from="809727980#0" to="1057256025#1"/>