<routes>
    <vehicle id="0003720522022061120220911" route="0003720522022061120220911" type="bus" depart="28800" line="3_0003720522022061120220911"/>
    <vehicle id="0003723092022061120220911" route="0003723092022061120220911" type="bus" depart="25020" line="3_0003723092022061120220911"/>
    <vehicle id="0003723102022061120220911" route="0003723102022061120220911" type="bus" depart="27420" line="3_0003723102022061120220911"/>
    <vehicle id="0003723112022061120220911" route="0003723102022061120220911" type="bus" depart="28620" line="3_0003723102022061120220911"/>
    <vehicle id="0003723122022061120220911" route="0003723102022061120220911" type="bus" depart="29820" line="3_0003723102022061120220911"/>
    <vehicle id="0003723132022061120220911" route="0003723132022061120220911" type="bus" depart="25980" line="3_0003723132022061120220911"/>
    <vehicle id="0003723142022061120220911" route="0003723142022061120220911" type="bus" depart="73620" line="3_0003723142022061120220911"/>
    <vehicle id="0003723152022061120220911" route="0003723152022061120220911" type="bus" depart="23580" line="3_0003723152022061120220911"/>
    <vehicle id="0003723162022061120220911" route="0003723162022061120220911" type="bus" depart="25860" line="3_0003723162022061120220911"/>
    <vehicle id="0003723172022061120220911" route="0003723172022061120220911" type="bus" depart="43500" line="3_0003723172022061120220911"/>
    <vehicle id="0003723292022061120220911" route="0003723292022061120220911" type="bus" depart="25620" line="3_0003723292022061120220911"/>
    <vehicle id="0003723302022061120220911" route="0003723292022061120220911" type="bus" depart="32820" line="3_0003723292022061120220911"/>
    <vehicle id="0003723312022061120220911" route="0003723292022061120220911" type="bus" depart="30420" line="3_0003723292022061120220911"/>
    <vehicle id="0003723322022061120220911" route="0003723292022061120220911" type="bus" depart="37620" line="3_0003723292022061120220911"/>
    <vehicle id="0003723332022061120220911" route="0003723292022061120220911" type="bus" depart="44820" line="3_0003723292022061120220911"/>
    <vehicle id="0003723342022061120220911" route="0003723292022061120220911" type="bus" depart="52020" line="3_0003723292022061120220911"/>
    <vehicle id="0003723352022061120220911" route="0003723292022061120220911" type="bus" depart="40020" line="3_0003723292022061120220911"/>
    <vehicle id="0003723362022061120220911" route="0003723292022061120220911" type="bus" depart="47220" line="3_0003723292022061120220911"/>
    <vehicle id="0003723372022061120220911" route="0003723292022061120220911" type="bus" depart="54420" line="3_0003723292022061120220911"/>
    <vehicle id="0003723382022061120220911" route="0003723292022061120220911" type="bus" depart="61620" line="3_0003723292022061120220911"/>
    <vehicle id="0003723392022061120220911" route="0003723292022061120220911" type="bus" depart="68820" line="3_0003723292022061120220911"/>
    <vehicle id="0003723402022061120220911" route="0003723292022061120220911" type="bus" depart="20280" line="3_0003723292022061120220911"/>
    <vehicle id="0003723412022061120220911" route="0003723292022061120220911" type="bus" depart="28020" line="3_0003723292022061120220911"/>
    <vehicle id="0003723422022061120220911" route="0003723292022061120220911" type="bus" depart="35220" line="3_0003723292022061120220911"/>
    <vehicle id="0003723432022061120220911" route="0003723292022061120220911" type="bus" depart="42420" line="3_0003723292022061120220911"/>
    <vehicle id="0003723442022061120220911" route="0003723292022061120220911" type="bus" depart="49620" line="3_0003723292022061120220911"/>
    <vehicle id="0003723452022061120220911" route="0003723292022061120220911" type="bus" depart="56820" line="3_0003723292022061120220911"/>
    <vehicle id="0003723462022061120220911" route="0003723292022061120220911" type="bus" depart="64020" line="3_0003723292022061120220911"/>
    <vehicle id="0003723472022061120220911" route="0003723292022061120220911" type="bus" depart="71220" line="3_0003723292022061120220911"/>
    <vehicle id="0003723482022061120220911" route="0003723292022061120220911" type="bus" depart="59220" line="3_0003723292022061120220911"/>
    <vehicle id="0003723492022061120220911" route="0003723292022061120220911" type="bus" depart="66420" line="3_0003723292022061120220911"/>
    <vehicle id="0003723502022061120220911" route="0003723292022061120220911" type="bus" depart="22620" line="3_0003723292022061120220911"/>
    <vehicle id="0003723512022061120220911" route="0003723512022061120220911" type="bus" depart="42720" line="3_0003723512022061120220911"/>
    <vehicle id="0003723522022061120220911" route="0003723522022061120220911" type="bus" depart="45420" line="3_0003723522022061120220911"/>
    <vehicle id="0003723532022061120220911" route="0003723522022061120220911" type="bus" depart="36420" line="3_0003723522022061120220911"/>
    <vehicle id="0003723542022061120220911" route="0003723522022061120220911" type="bus" depart="34020" line="3_0003723522022061120220911"/>
    <vehicle id="0003723552022061120220911" route="0003723522022061120220911" type="bus" depart="26820" line="3_0003723522022061120220911"/>
    <vehicle id="0003723562022061120220911" route="0003723522022061120220911" type="bus" depart="41220" line="3_0003723522022061120220911"/>
    <vehicle id="0003723572022061120220911" route="0003723522022061120220911" type="bus" depart="48420" line="3_0003723522022061120220911"/>
    <vehicle id="0003723582022061120220911" route="0003723512022061120220911" type="bus" depart="55620" line="3_0003723512022061120220911"/>
    <vehicle id="0003723592022061120220911" route="0003723522022061120220911" type="bus" depart="62820" line="3_0003723522022061120220911"/>
    <vehicle id="0003723602022061120220911" route="0003723512022061120220911" type="bus" depart="70020" line="3_0003723512022061120220911"/>
    <vehicle id="0003723612022061120220911" route="0003723522022061120220911" type="bus" depart="29220" line="3_0003723522022061120220911"/>
    <vehicle id="0003723622022061120220911" route="0003723522022061120220911" type="bus" depart="43620" line="3_0003723522022061120220911"/>
    <vehicle id="0003723632022061120220911" route="0003723522022061120220911" type="bus" depart="50820" line="3_0003723522022061120220911"/>
    <vehicle id="0003723642022061120220911" route="0003723522022061120220911" type="bus" depart="58020" line="3_0003723522022061120220911"/>
    <vehicle id="0003723652022061120220911" route="0003723512022061120220911" type="bus" depart="65220" line="3_0003723512022061120220911"/>
    <vehicle id="0003723662022061120220911" route="0003723522022061120220911" type="bus" depart="72420" line="3_0003723522022061120220911"/>
    <vehicle id="0003723672022061120220911" route="0003723522022061120220911" type="bus" depart="31620" line="3_0003723522022061120220911"/>
    <vehicle id="0003723682022061120220911" route="0003723512022061120220911" type="bus" depart="38820" line="3_0003723512022061120220911"/>
    <vehicle id="0003723692022061120220911" route="0003723512022061120220911" type="bus" depart="46020" line="3_0003723512022061120220911"/>
    <vehicle id="0003723702022061120220911" route="0003723522022061120220911" type="bus" depart="53220" line="3_0003723522022061120220911"/>
    <vehicle id="0003723712022061120220911" route="0003723512022061120220911" type="bus" depart="60420" line="3_0003723512022061120220911"/>
    <vehicle id="0003723722022061120220911" route="0003723522022061120220911" type="bus" depart="67620" line="3_0003723522022061120220911"/>
    <vehicle id="0003723732022061120220911" route="0003723522022061120220911" type="bus" depart="74820" line="3_0003723522022061120220911"/>
    <vehicle id="0003729462022061120220911" route="0003729462022061120220911" type="bus" depart="48720" line="3_0003729462022061120220911"/>
    <vehicle id="0003729472022061120220911" route="0003729472022061120220911" type="bus" depart="18240" line="3_0003729472022061120220911"/>
    <vehicle id="0003729482022061120220911" route="0003729472022061120220911" type="bus" depart="22800" line="3_0003729472022061120220911"/>
    <vehicle id="0003729492022061120220911" route="0003729492022061120220911" type="bus" depart="29940" line="3_0003729492022061120220911"/>
    <vehicle id="0003729502022061120220911" route="0003729492022061120220911" type="bus" depart="37140" line="3_0003729492022061120220911"/>
    <vehicle id="0003729512022061120220911" route="0003729492022061120220911" type="bus" depart="51540" line="3_0003729492022061120220911"/>
    <vehicle id="0003729522022061120220911" route="0003729472022061120220911" type="bus" depart="58920" line="3_0003729472022061120220911"/>
    <vehicle id="0003729532022061120220911" route="0003729472022061120220911" type="bus" depart="66120" line="3_0003729472022061120220911"/>
    <vehicle id="0003729542022061120220911" route="0003729472022061120220911" type="bus" depart="73320" line="3_0003729472022061120220911"/>
    <vehicle id="0003729552022061120220911" route="0003729472022061120220911" type="bus" depart="32520" line="3_0003729472022061120220911"/>
    <vehicle id="0003729562022061120220911" route="0003729472022061120220911" type="bus" depart="39720" line="3_0003729472022061120220911"/>
    <vehicle id="0003729572022061120220911" route="0003729472022061120220911" type="bus" depart="46920" line="3_0003729472022061120220911"/>
    <vehicle id="0003729582022061120220911" route="0003729472022061120220911" type="bus" depart="54120" line="3_0003729472022061120220911"/>
    <vehicle id="0003729592022061120220911" route="0003729472022061120220911" type="bus" depart="61320" line="3_0003729472022061120220911"/>
    <vehicle id="0003729602022061120220911" route="0003729472022061120220911" type="bus" depart="68520" line="3_0003729472022061120220911"/>
    <vehicle id="0003729612022061120220911" route="0003729472022061120220911" type="bus" depart="34920" line="3_0003729472022061120220911"/>
    <vehicle id="0003729622022061120220911" route="0003729472022061120220911" type="bus" depart="42420" line="3_0003729472022061120220911"/>
    <vehicle id="0003729632022061120220911" route="0003729492022061120220911" type="bus" depart="49320" line="3_0003729492022061120220911"/>
    <vehicle id="0003729642022061120220911" route="0003729472022061120220911" type="bus" depart="56520" line="3_0003729472022061120220911"/>
    <vehicle id="0003729652022061120220911" route="0003729472022061120220911" type="bus" depart="63720" line="3_0003729472022061120220911"/>
    <vehicle id="0003729662022061120220911" route="0003729472022061120220911" type="bus" depart="70920" line="3_0003729472022061120220911"/>
    <vehicle id="0003729672022061120220911" route="0003729472022061120220911" type="bus" depart="44520" line="3_0003729472022061120220911"/>
    <vehicle id="0003729682022061120220911" route="0003729472022061120220911" type="bus" depart="21120" line="3_0003729472022061120220911"/>
    <vehicle id="0003729692022061120220911" route="0003729472022061120220911" type="bus" depart="25320" line="3_0003729472022061120220911"/>
    <vehicle id="0003729702022061120220911" route="0003729492022061120220911" type="bus" depart="21840" line="3_0003729492022061120220911"/>
    <vehicle id="0003729712022061120220911" route="0003729492022061120220911" type="bus" depart="26340" line="3_0003729492022061120220911"/>
    <vehicle id="0003729722022061120220911" route="0003729472022061120220911" type="bus" depart="28020" line="3_0003729472022061120220911"/>
    <vehicle id="0003729732022061120220911" route="0003729732022061120220911" type="bus" depart="64920" line="3_0003729732022061120220911"/>
    <vehicle id="0003729742022061120220911" route="0003729732022061120220911" type="bus" depart="72120" line="3_0003729732022061120220911"/>
    <vehicle id="0003729752022061120220911" route="0003729732022061120220911" type="bus" depart="40920" line="3_0003729732022061120220911"/>
    <vehicle id="0003729762022061120220911" route="0003729732022061120220911" type="bus" depart="48120" line="3_0003729732022061120220911"/>
    <vehicle id="0003729772022061120220911" route="0003729732022061120220911" type="bus" depart="55320" line="3_0003729732022061120220911"/>
    <vehicle id="0003729782022061120220911" route="0003729732022061120220911" type="bus" depart="62520" line="3_0003729732022061120220911"/>
    <vehicle id="0003729792022061120220911" route="0003729732022061120220911" type="bus" depart="69720" line="3_0003729732022061120220911"/>
    <vehicle id="0003729802022061120220911" route="0003729802022061120220911" type="bus" depart="24240" line="3_0003729802022061120220911"/>
    <vehicle id="0003729812022061120220911" route="0003729732022061120220911" type="bus" depart="31320" line="3_0003729732022061120220911"/>
    <vehicle id="0003729822022061120220911" route="0003729732022061120220911" type="bus" depart="38520" line="3_0003729732022061120220911"/>
    <vehicle id="0003729832022061120220911" route="0003729732022061120220911" type="bus" depart="45720" line="3_0003729732022061120220911"/>
    <vehicle id="0003729842022061120220911" route="0003729732022061120220911" type="bus" depart="52920" line="3_0003729732022061120220911"/>
    <vehicle id="0003729852022061120220911" route="0003729732022061120220911" type="bus" depart="60120" line="3_0003729732022061120220911"/>
    <vehicle id="0003729862022061120220911" route="0003729732022061120220911" type="bus" depart="67320" line="3_0003729732022061120220911"/>
    <vehicle id="0003729872022061120220911" route="0003729732022061120220911" type="bus" depart="25920" line="3_0003729732022061120220911"/>
    <vehicle id="0003729882022061120220911" route="0003729802022061120220911" type="bus" depart="33540" line="3_0003729802022061120220911"/>
    <vehicle id="0003729892022061120220911" route="0003729732022061120220911" type="bus" depart="28920" line="3_0003729732022061120220911"/>
    <vehicle id="0003729902022061120220911" route="0003729732022061120220911" type="bus" depart="36120" line="3_0003729732022061120220911"/>
    <vehicle id="0003729912022061120220911" route="0003729732022061120220911" type="bus" depart="43320" line="3_0003729732022061120220911"/>
    <vehicle id="0003729922022061120220911" route="0003729732022061120220911" type="bus" depart="50520" line="3_0003729732022061120220911"/>
    <vehicle id="0003729932022061120220911" route="0003729732022061120220911" type="bus" depart="57720" line="3_0003729732022061120220911"/>
    <vehicle id="0003729942022061120220911" route="0003729472022061120220911" type="bus" depart="23700" line="3_0003729472022061120220911"/>
    <vehicle id="0003735462022061120220911" route="0003735462022061120220911" type="bus" depart="27420" line="3_0003735462022061120220911"/>
    <vehicle id="0003739302022061120220911" route="0003729732022061120220911" type="bus" depart="74520" line="3_0003729732022061120220911"/>
    <vehicle id="0003739502022061120220911" route="0003739502022061120220911" type="bus" depart="76500" line="3_0003739502022061120220911"/>
    <vehicle id="0003739512022061120220911" route="0003739502022061120220911" type="bus" depart="83700" line="3_0003739502022061120220911"/>
    <vehicle id="0003739512022061120220911.trimmed" route="0003739512022061120220911.trimmed" type="bus" depart="86460" line="3_0003739512022061120220911.trimmed"/>
    <vehicle id="0003739522022061120220911" route="0003739522022061120220911" type="bus" depart="79920" line="3_0003739522022061120220911"/>
    <vehicle id="0003739532022061120220911" route="0003739522022061120220911" type="bus" depart="81720" line="3_0003739522022061120220911"/>
    <vehicle id="0003739542022061120220911" route="0003739502022061120220911" type="bus" depart="78300" line="3_0003739502022061120220911"/>
    <vehicle id="0003739552022061120220911" route="0003739522022061120220911" type="bus" depart="76320" line="3_0003739522022061120220911"/>
    <vehicle id="0003739562022061120220911" route="0003739522022061120220911" type="bus" depart="83520" line="3_0003739522022061120220911"/>
    <vehicle id="0003739572022061120220911" route="0003739502022061120220911" type="bus" depart="80100" line="3_0003739502022061120220911"/>
    <vehicle id="0003739582022061120220911" route="0003739522022061120220911" type="bus" depart="78120" line="3_0003739522022061120220911"/>
    <vehicle id="0003739592022061120220911" route="0003739502022061120220911" type="bus" depart="81900" line="3_0003739502022061120220911"/>
    <vehicle id="0003718662022061120220911" route="0003718662022061120220911" type="bus" depart="21960" line="5_0003718662022061120220911"/>
    <vehicle id="0003718672022061120220911" route="0003718662022061120220911" type="bus" depart="26100" line="5_0003718662022061120220911"/>
    <vehicle id="0003718682022061120220911" route="0003718662022061120220911" type="bus" depart="27120" line="5_0003718662022061120220911"/>
    <vehicle id="0003719272022061120220911" route="0003718662022061120220911" type="bus" depart="24720" line="5_0003718662022061120220911"/>
    <vehicle id="0003719282022061120220911" route="0003718662022061120220911" type="bus" depart="29820" line="5_0003718662022061120220911"/>
    <vehicle id="0003719292022061120220911" route="0003718662022061120220911" type="bus" depart="31020" line="5_0003718662022061120220911"/>
    <vehicle id="0003719302022061120220911" route="0003718662022061120220911" type="bus" depart="28620" line="5_0003718662022061120220911"/>
    <vehicle id="0003719312022061120220911" route="0003718662022061120220911" type="bus" depart="32220" line="5_0003718662022061120220911"/>
    <vehicle id="0003719322022061120220911" route="0003718662022061120220911" type="bus" depart="35820" line="5_0003718662022061120220911"/>
    <vehicle id="0003719332022061120220911" route="0003718662022061120220911" type="bus" depart="39420" line="5_0003718662022061120220911"/>
    <vehicle id="0003719342022061120220911" route="0003718662022061120220911" type="bus" depart="43020" line="5_0003718662022061120220911"/>
    <vehicle id="0003719352022061120220911" route="0003718662022061120220911" type="bus" depart="46620" line="5_0003718662022061120220911"/>
    <vehicle id="0003719362022061120220911" route="0003718662022061120220911" type="bus" depart="50220" line="5_0003718662022061120220911"/>
    <vehicle id="0003719372022061120220911" route="0003718662022061120220911" type="bus" depart="53820" line="5_0003718662022061120220911"/>
    <vehicle id="0003719382022061120220911" route="0003718662022061120220911" type="bus" depart="57420" line="5_0003718662022061120220911"/>
    <vehicle id="0003719392022061120220911" route="0003718662022061120220911" type="bus" depart="61020" line="5_0003718662022061120220911"/>
    <vehicle id="0003719402022061120220911" route="0003718662022061120220911" type="bus" depart="64620" line="5_0003718662022061120220911"/>
    <vehicle id="0003719412022061120220911" route="0003718662022061120220911" type="bus" depart="68220" line="5_0003718662022061120220911"/>
    <vehicle id="0003719422022061120220911" route="0003718662022061120220911" type="bus" depart="71820" line="5_0003718662022061120220911"/>
    <vehicle id="0003719432022061120220911" route="0003718662022061120220911" type="bus" depart="33420" line="5_0003718662022061120220911"/>
    <vehicle id="0003719442022061120220911" route="0003718662022061120220911" type="bus" depart="37020" line="5_0003718662022061120220911"/>
    <vehicle id="0003719452022061120220911" route="0003718662022061120220911" type="bus" depart="40620" line="5_0003718662022061120220911"/>
    <vehicle id="0003719462022061120220911" route="0003718662022061120220911" type="bus" depart="44220" line="5_0003718662022061120220911"/>
    <vehicle id="0003719472022061120220911" route="0003718662022061120220911" type="bus" depart="47820" line="5_0003718662022061120220911"/>
    <vehicle id="0003719492022061120220911" route="0003718662022061120220911" type="bus" depart="55020" line="5_0003718662022061120220911"/>
    <vehicle id="0003719502022061120220911" route="0003718662022061120220911" type="bus" depart="58620" line="5_0003718662022061120220911"/>
    <vehicle id="0003719512022061120220911" route="0003718662022061120220911" type="bus" depart="62220" line="5_0003718662022061120220911"/>
    <vehicle id="0003719522022061120220911" route="0003718662022061120220911" type="bus" depart="65820" line="5_0003718662022061120220911"/>
    <vehicle id="0003719532022061120220911" route="0003718662022061120220911" type="bus" depart="69420" line="5_0003718662022061120220911"/>
    <vehicle id="0003719542022061120220911" route="0003718662022061120220911" type="bus" depart="73020" line="5_0003718662022061120220911"/>
    <vehicle id="0003719552022061120220911" route="0003718662022061120220911" type="bus" depart="34620" line="5_0003718662022061120220911"/>
    <vehicle id="0003719562022061120220911" route="0003718662022061120220911" type="bus" depart="38220" line="5_0003718662022061120220911"/>
    <vehicle id="0003719572022061120220911" route="0003718662022061120220911" type="bus" depart="41820" line="5_0003718662022061120220911"/>
    <vehicle id="0003719582022061120220911" route="0003718662022061120220911" type="bus" depart="45420" line="5_0003718662022061120220911"/>
    <vehicle id="0003719592022061120220911" route="0003718662022061120220911" type="bus" depart="49020" line="5_0003718662022061120220911"/>
    <vehicle id="0003719602022061120220911" route="0003718662022061120220911" type="bus" depart="52620" line="5_0003718662022061120220911"/>
    <vehicle id="0003719612022061120220911" route="0003718662022061120220911" type="bus" depart="56220" line="5_0003718662022061120220911"/>
    <vehicle id="0003719622022061120220911" route="0003718662022061120220911" type="bus" depart="59820" line="5_0003718662022061120220911"/>
    <vehicle id="0003719632022061120220911" route="0003718662022061120220911" type="bus" depart="63420" line="5_0003718662022061120220911"/>
    <vehicle id="0003719642022061120220911" route="0003718662022061120220911" type="bus" depart="67020" line="5_0003718662022061120220911"/>
    <vehicle id="0003719652022061120220911" route="0003718662022061120220911" type="bus" depart="70620" line="5_0003718662022061120220911"/>
    <vehicle id="0003719662022061120220911" route="0003718662022061120220911" type="bus" depart="74220" line="5_0003718662022061120220911"/>
    <vehicle id="0003726772022061120220911" route="0003726772022061120220911" type="bus" depart="70560" line="5_0003726772022061120220911"/>
    <vehicle id="0003727562022061120220911" route="0003727562022061120220911" type="bus" depart="20340" line="5_0003727562022061120220911"/>
    <vehicle id="0003727572022061120220911" route="0003727562022061120220911" type="bus" depart="23160" line="5_0003727562022061120220911"/>
    <vehicle id="0003727582022061120220911" route="0003727562022061120220911" type="bus" depart="28140" line="5_0003727562022061120220911"/>
    <vehicle id="0003727592022061120220911" route="0003727562022061120220911" type="bus" depart="29340" line="5_0003727562022061120220911"/>
    <vehicle id="0003727602022061120220911" route="0003727562022061120220911" type="bus" depart="26940" line="5_0003727562022061120220911"/>
    <vehicle id="0003727612022061120220911" route="0003727562022061120220911" type="bus" depart="25560" line="5_0003727562022061120220911"/>
    <vehicle id="0003727622022061120220911" route="0003727562022061120220911" type="bus" depart="30540" line="5_0003727562022061120220911"/>
    <vehicle id="0003727632022061120220911" route="0003727562022061120220911" type="bus" depart="34140" line="5_0003727562022061120220911"/>
    <vehicle id="0003727642022061120220911" route="0003727562022061120220911" type="bus" depart="37740" line="5_0003727562022061120220911"/>
    <vehicle id="0003727652022061120220911" route="0003727562022061120220911" type="bus" depart="41340" line="5_0003727562022061120220911"/>
    <vehicle id="0003727662022061120220911" route="0003727562022061120220911" type="bus" depart="44940" line="5_0003727562022061120220911"/>
    <vehicle id="0003727672022061120220911" route="0003727562022061120220911" type="bus" depart="48540" line="5_0003727562022061120220911"/>
    <vehicle id="0003727682022061120220911" route="0003727562022061120220911" type="bus" depart="52140" line="5_0003727562022061120220911"/>
    <vehicle id="0003727692022061120220911" route="0003727562022061120220911" type="bus" depart="55740" line="5_0003727562022061120220911"/>
    <vehicle id="0003727702022061120220911" route="0003727562022061120220911" type="bus" depart="59340" line="5_0003727562022061120220911"/>
    <vehicle id="0003727712022061120220911" route="0003727562022061120220911" type="bus" depart="62940" line="5_0003727562022061120220911"/>
    <vehicle id="0003727722022061120220911" route="0003727562022061120220911" type="bus" depart="66540" line="5_0003727562022061120220911"/>
    <vehicle id="0003727732022061120220911" route="0003727562022061120220911" type="bus" depart="70140" line="5_0003727562022061120220911"/>
    <vehicle id="0003727742022061120220911" route="0003727562022061120220911" type="bus" depart="74100" line="5_0003727562022061120220911"/>
    <vehicle id="0003727752022061120220911" route="0003727562022061120220911" type="bus" depart="31740" line="5_0003727562022061120220911"/>
    <vehicle id="0003727762022061120220911" route="0003727562022061120220911" type="bus" depart="35340" line="5_0003727562022061120220911"/>
    <vehicle id="0003727772022061120220911" route="0003727562022061120220911" type="bus" depart="38940" line="5_0003727562022061120220911"/>
    <vehicle id="0003727782022061120220911" route="0003727562022061120220911" type="bus" depart="42540" line="5_0003727562022061120220911"/>
    <vehicle id="0003727792022061120220911" route="0003727562022061120220911" type="bus" depart="46140" line="5_0003727562022061120220911"/>
    <vehicle id="0003727802022061120220911" route="0003727562022061120220911" type="bus" depart="49740" line="5_0003727562022061120220911"/>
    <vehicle id="0003727812022061120220911" route="0003727562022061120220911" type="bus" depart="53340" line="5_0003727562022061120220911"/>
    <vehicle id="0003727822022061120220911" route="0003727562022061120220911" type="bus" depart="56940" line="5_0003727562022061120220911"/>
    <vehicle id="0003727832022061120220911" route="0003727562022061120220911" type="bus" depart="60540" line="5_0003727562022061120220911"/>
    <vehicle id="0003727842022061120220911" route="0003727562022061120220911" type="bus" depart="64140" line="5_0003727562022061120220911"/>
    <vehicle id="0003727852022061120220911" route="0003727562022061120220911" type="bus" depart="67740" line="5_0003727562022061120220911"/>
    <vehicle id="0003727862022061120220911" route="0003727562022061120220911" type="bus" depart="71340" line="5_0003727562022061120220911"/>
    <vehicle id="0003727872022061120220911" route="0003727562022061120220911" type="bus" depart="32940" line="5_0003727562022061120220911"/>
    <vehicle id="0003727882022061120220911" route="0003727562022061120220911" type="bus" depart="36540" line="5_0003727562022061120220911"/>
    <vehicle id="0003727892022061120220911" route="0003727562022061120220911" type="bus" depart="40140" line="5_0003727562022061120220911"/>
    <vehicle id="0003727902022061120220911" route="0003727562022061120220911" type="bus" depart="43740" line="5_0003727562022061120220911"/>
    <vehicle id="0003727912022061120220911" route="0003727562022061120220911" type="bus" depart="47340" line="5_0003727562022061120220911"/>
    <vehicle id="0003727922022061120220911" route="0003727562022061120220911" type="bus" depart="50940" line="5_0003727562022061120220911"/>
    <vehicle id="0003727932022061120220911" route="0003727562022061120220911" type="bus" depart="54540" line="5_0003727562022061120220911"/>
    <vehicle id="0003727942022061120220911" route="0003727562022061120220911" type="bus" depart="58140" line="5_0003727562022061120220911"/>
    <vehicle id="0003727952022061120220911" route="0003727562022061120220911" type="bus" depart="61740" line="5_0003727562022061120220911"/>
    <vehicle id="0003727962022061120220911" route="0003727562022061120220911" type="bus" depart="65340" line="5_0003727562022061120220911"/>
    <vehicle id="0003727972022061120220911" route="0003727562022061120220911" type="bus" depart="68940" line="5_0003727562022061120220911"/>
    <vehicle id="0003727982022061120220911" route="0003727562022061120220911" type="bus" depart="72540" line="5_0003727562022061120220911"/>
    <vehicle id="0003727992022061120220911" route="0003727562022061120220911" type="bus" depart="24540" line="5_0003727562022061120220911"/>
    <vehicle id="0003739682022061120220911" route="0003718662022061120220911" type="bus" depart="76020" line="5_0003718662022061120220911"/>
    <vehicle id="0003739692022061120220911" route="0003718662022061120220911" type="bus" depart="79620" line="5_0003718662022061120220911"/>
    <vehicle id="0003739702022061120220911" route="0003718662022061120220911" type="bus" depart="83220" line="5_0003718662022061120220911"/>
    <vehicle id="0003739712022061120220911" route="0003739712022061120220911" type="bus" depart="77700" line="5_0003739712022061120220911"/>
    <vehicle id="0003739722022061120220911" route="0003739712022061120220911" type="bus" depart="81300" line="5_0003739712022061120220911"/>
    <vehicle id="0003739732022061120220911" route="0003739712022061120220911" type="bus" depart="84900" line="5_0003739712022061120220911"/>