<?xml version="1.0" encoding="UTF-8"?>

<!-- generated on 2022-07-17 18:22:00.793210 by randomTrips.py v1_14_0+0002-ebd7f0b131e
<configuration>
    <end value="3600"/>
    <fringe-factor value="5.0"/>
    <fringe-start-attributes value="departSpeed=&quot;max&quot;"/>
    <min-distance value="600.0"/>
    <net-file value="osm.net.xml"/>
    <period value="1.33927"/>
    <route-file value="osm.bus.rou.xml"/>
    <trip-attributes value="departLane=&quot;best&quot;"/>
    <output-trip-file value="osm.bus.trips.xml"/>
    <prefix value="bus"/>
    <validate value="True"/>
    <vclass value="bus"/>
    <vehicle-class value="bus"/>
</configuration>
-->

<!-- generated on 2022-07-17 18:21:56 by Eclipse SUMO duarouter Version 1.14.0
<configuration xmlns:xsi="http://www.w3.org/2001/XMLSchema-instance" xsi:noNamespaceSchemaLocation="http://sumo.dlr.de/xsd/duarouterConfiguration.xsd">

    <input>
        <net-file value="osm.net.xml"/>
        <route-files value="osm.bus.trips.xml"/>
    </input>

    <output>
        <output-file value="osm.bus.rou.xml"/>
        <alternatives-output value="NUL"/>
    </output>

    <time>
        <begin value="0"/>
        <end value="3600"/>
    </time>

    <report>
        <no-warnings value="true"/>
        <ignore-errors value="true"/>
        <no-step-log value="true"/>
    </report>

</configuration>
-->

<routes xmlns:xsi="http://www.w3.org/2001/XMLSchema-instance" xsi:noNamespaceSchemaLocation="http://sumo.dlr.de/xsd/routes_file.xsd">
    <vType id="bus_bus" vClass="bus"/>
    <vehicle id="bus0" type="bus_bus" depart="0.00" departLane="best">
        <route edges="24615878 569375073 -24479772 24479771 -483221933 -483221929#1 -483221929#0 -483221928 -23951769#0 571994481 23951662 571994484 571994483 -97111248 -974959833#2 -974959833#0 -97111275#2 -97111275#1 -99752050#6 -99752050#4 -99752050#2 -99752050#1 -99752050#0 -49577096 23952132#1 23952132#3 23952132#5 23952132#6 23952132#7 23952132#8 23800071#1 1055608291#0 1055608291#1 31301718#0 31301718#1 31301718#2 72847149 23066740#1 177180084 198530824 223006672#0 689152192#0 283010968#0 283010968#1 141265570 23794856 110057082#0 110057082#1 110057082#2 68286128#0 68286128#1 68286131 1064508566#0 1064508566#1 1064508566#2 24161642#0 24161642#2 24161642#3 24161642#5 24161642#6 24161642#7 24161642#8 24226869#0 24226869#2 24226869#4 24226869#5 118389121#0 118389121#1 118389121#2 118389121#3 118389121#4 118389121#5 -118389121#5 -118389121#4 -118389121#3 -118389121#2 -118389121#1"/>
    </vehicle>
    <vehicle id="bus1" type="bus_bus" depart="1.34" departLane="best">
        <route edges="-34865541 34865541 528695740 23952139#0 23952139#1 27168143#0 27168143#1 27168143#2 27168143#3 131865016#0 131865016#1 131865016#2 131865016#3 131865016#4 131865016#5 131865016#6 497884797 214754042 42285203 497884795 40484490 497883323 497883324 35208481 48400051 497883343 497883333#1 497883333#2 809938444#0 809938444#2 809938444#3 809938444#5 109438718#0 109438718#1 109438718#2 744668217 1026103341 23004629 23007976#0 23007976#1 419226778#0 419226778#1 461923147 461923146#1 461923146#2 461923146#3 31343411 31343408#1 31343408#2 421813732 419226782#0 419226782#1 419226782#2 1059506976 36846951#0 33168188#0 25659474#0 25659474#1 25659474#2 25659474#3 24479365#0 24479365#1 24479365#2 24479365#3 37792173 292088665#1 292088665#2 320176573#7 24479370#0 24479370#1 -29313547"/>
    </vehicle>
    <vehicle id="bus2" type="bus_bus" depart="2.68" departLane="best" departSpeed="max">
        <route edges="26624979 97115292#0 97115292#1 97115292#3 97115292#4 97115292#5 97115292#6 97115292#7 97115292#9 97115292#10 97150496 497884793 497883325 -23302058 -497884795 -42285203 -214754042 -312760656#1 -312760660 -312760664 23680742 37247627 312760682 -312760668#0 -97230175#8 -97230175#7 -97230175#6 -97230175#5 24965637#0 27168490"/>
    </vehicle>
    <vehicle id="bus3" type="bus_bus" depart="4.02" departLane="best">
        <route edges="-80375831#2 -80375831#1 -80375831#0 -23809484#3 -23809484#1 -23809484#0 23976436#0 23976436#1 34865541 528695740 97230175#0 97230175#1 97230175#2 97230175#3 97230175#5 97230175#6 97230175#7 97230175#8 312760668#0 23680645 23680758 312760676 312760672#0 312760672#1 312760672#2 -97117411#6 -97117411#5 -97117411#4 -97117411#3 -97117411#2 -97117411#1 -97117416 -23680878#9 -23680878#8 -23680878#7 -23680878#5 -23680878#3 -23680878#2 -23680878#0 308178203 308178199 308178200 829951748 -823407788 -308178198 -24479576#1 974959832#0 974959832#1 974959832#2 24755681#0 24755681#2 23763110#0 23763110#1 260532241#0 591045085#0 23951161 42288377#0 684985752#0 684985752#1 684985752#2 684985752#6 684985752#7 684985752#8 684985752#9 24054414#0 24054414#1 24443789#0 24443789#2 24443789#3 24443789#4 24443789#5 24443789#6 97251496#0 97251496#2 24443823#0 -24443821#1 -24443821#0 37134296 305272357#0 305272357#1 1058552716 305272358 -306203532#2 -306203532#1 -306203532#0 -191633686 24054411#0 24054411#1 24054411#2 24054411#3 24054411#5 24054411#6 24054411#7 306342329 1063621805 1063621806 1064513139 24087530 306341971#0 306341971#1 306341971#2 306341971#4 306341971#5 306341971#6 306341971#8 306341971#9 111623853 1063621810 1063621813 1064513136 -25569954 -1075716931#2 -1075716931#0 -16747332#0 1075716933 -25215957#15 -25215957#14 -25215957#13 -25215957#12 -25215957#10 -25215957#9 -25215957#8 -25215957#7 -25215957#6 -25215957#5 -25215957#4 -25215957#3 -25215957#2 -25215957#1 -25215957#0 -122103279#1 -122103279#0 -1065129005 -122103281 -532776871 -122103278#4 -122103278#3 -122103278#2 -122103278#1 -122103278#0"/>
    </vehicle>
    <vehicle id="bus4" type="bus_bus" depart="5.36" departLane="best" departSpeed="max">
        <route edges="-27168490 -24965637#0 97230175#5 97230175#6 97230175#7 97230175#8 312760668#0 23680645 23680758 312760676 312760672#0 312760672#1 312760672#2 -97117411#6 -97117411#5 -97117411#4 -97117411#3 -97117411#2 -97117411#1 -97117416 -23680878#9 -23680878#8 -23680878#7 -23680878#5 -23680878#3 -23680878#2 -23680878#0 308178203 308178199 308178200 829951748 -823407788 -308178198 -24479576#1 974959832#0 974959832#1 974959832#2 24755681#0 24755681#2 23763110#0 23763110#1 260532241#0 591045085#0 23951161 42288377#0 684985752#0 684985752#1 684985752#2 684985752#6 684985752#7 684985752#8 684985752#9 24054414#0 24054414#1 24443789#0 24443789#2 24443789#3 24443789#4 24443789#5 24443789#6 97251496#0 97251496#2 24443823#0 -24443821#1 -24443821#0 37134296 305272357#0 305272357#1 1058552716 305272358 -306203532#2 -306203532#1 -306203532#0 -191633686 24054411#0 24054411#1 24054411#2 24054411#3 24054411#5 24054411#6 24054411#7 306342329 1063621805 1063621806 1064513139 24087530 306341971#0 306341971#1 306341971#2 306341971#4 306341971#5 306341971#6 306341971#8 306341971#9 111623853 1063621810 1063621813 1064513136 -25569954 -1075716931#2 -1075716931#0 -16747332#0 1075716933 -25215957#15 -25215957#14 -25215957#13 -25215957#12 -25215957#10 -25215957#9 -25215957#8 -25215957#7 -25215957#6 -25215957#5 -25215957#4 -25215957#3 -25215957#2 -25215957#1 -25215957#0 -122103279#1 -122103279#0 -1065129005 25485483 -25485480#1 228147293"/>
    </vehicle>
    <vehicle id="bus5" type="bus_bus" depart="6.70" departLane="best">
        <route edges="-114571772#2 -114571772#1 -114571772#0 114571772#0 114571772#1 114571772#2 114571772#3 114571772#4 114571772#5 -126733700#6 -126733700#5 -126733700#4 -126733700#3 -126733700#2 -126733700#1 -126733700#0 -220921089#11 -220921089#10 -220921089#8 -220921089#7 -220921089#6 -220921089#5 -220921089#4 -220921089#3 -220921089#2 -220921089#1 -220921089#0 -25572594#1 -25572594#0 75316410 1055765971#0 1055765971#1 1055765971#2 25572602 75319181#1 75319181#2 75319181#3 75319181#4 75319181#6 75319181#8 75319181#9 1055765967#0 -35209303#23 -35209303#22 -35209303#20 -35209303#18 -35209303#17 -35209303#15 -35209303#14 -35209303#13 -35209303#11 -35209303#9 -35209303#8 -35209303#7 -35209303#6 -35209303#2 -35209303#1 -35209303#0 -1055765965#2 -1055765965#1 -1055765965#0 -32225707#3 -32225707#2 -32225707#1 -32225707#0 -24728628#8 -24728628#7 -24728628#6 -24728628#5 -24728628#4 -24728628#2 -24728628#1 -24728628#0 24374074#0 24374074#1 24374074#2 42285204 42285203 497884795 40484490 497883323 497883324 35208428 -497884793 -497884794 -26653464"/>
    </vehicle>
    <vehicle id="bus6" type="bus_bus" depart="8.04" departLane="best" departSpeed="max">
        <route edges="-27168500#1 -27168500#0 131865016#2 131865016#3 131865016#4 131865016#5 131865016#6 497884797 214666816 497884796 -24374074#2 -24374074#1 -24374074#0 24728628#0 24728628#1 24728628#2 24728628#4 24728628#5 24728628#6 24728628#7 24728628#8 32225707#0 32225707#1 32225707#2 32225707#3 24728630#1 24728630#2 916003336 -754578288#9 -754578288#8 -754578288#7 -754578288#6 -754578288#5 -754578288#2 1055765964#0 24915419#0 24915419#1 974477368 974959836 37246725#0 37246725#1 37246725#2 37246725#3 37246725#6 37246725#7 37246725#10 37246725#11 37246725#12 37246725#13 37246725#14 37246725#17 474125275#0 474125275#1 1059188633 974959837#0 974959837#1 474147468 25874854#0 25874854#1 25874854#2 51764178#0 51764178#1 51764178#4 51764178#5 40116006 24615880#0"/>
    </vehicle>
    <vehicle id="bus8" type="bus_bus" depart="10.71" departLane="best">
        <route edges="32507267#2 -32507267#2 -32507267#1 -35209303#11 -35209303#9 -35209303#8 -35209303#7 -35209303#6 -35209303#2 -35209303#1 -35209303#0 -1055765965#2 -1055765965#1 -1055765965#0 -32225707#3 -32225707#2 -32225707#1 -32225707#0 -24728628#8 -24728628#7 -24728628#6 -24728628#5 -24728628#4 -24728628#2 -24728628#1 -24728628#0 24374074#0 24374074#1 24374074#2 42285204 42285203 497884795 40484490 497883323 497883324 35208481 48400051 497883343 497883333#1 497883333#2 809938444#0 809938444#2 809938444#3 809938444#5 109438718#0 109438718#1 109438718#2 744668217 1026103341 23004629 23007976#0 23007976#1 419226778#0 419226778#1 461923147 461923146#1 461923146#2 461923146#3 31343411 31343408#1 31343408#2 421813732 419226782#0 419226782#1 419226782#2 1059506976 36846951#0 33168188#0 25659474#0 25659474#1 25659474#2 25659474#3 24479365#0 24479365#1 24479365#2 24479365#3 37792173 292088665#1 292088665#2 320176573#7 24479370#0 36836084#0 36836084#1 407005409#0 407005409#1 407005408#0 -38590703#6 -38590703#5 -38590703#4 -38590703#3 -38590703#2 -38590703#1 -38590703#0 -37041001 28449871#2"/>
    </vehicle>
    <vehicle id="bus9" type="bus_bus" depart="12.05" departLane="best">
        <route edges="-421806749#1 -421806749#0 -574541256#1 -574541256#0 -24226975#2 -24226975#1 -24226975#0 23809348#0 23809348#1 23809348#2 23809348#3 23809348#4 97004473#0 97004473#1 33168206#0 33168206#1 1059506975 1059188627 1059506976 36846951#0 33168188#0 25659474#0 25659474#1 25659474#2 25659474#3 1062347817 320176569 320176570 292088662#0 292088662#1 292088662#2 292088662#3 292088662#4 24161659#1 85334601 1061041472#0 1061041472#1 85334596 85334603#0 85334603#1 85334603#2 85334603#3 85334603#4 85334603#5 85334603#6 85334603#7 85334603#8 85334603#9 85334603#10 85334603#11 85334603#12 85334603#13 1061041466 118775763#0 118775763#1 118775763#2 -97084818#3 -97084818#1 -97084818#0 37103703 97084814 37681145 37791768 53127065 118704988 118768567 37791769#0 37791769#1 118775764 118775760#0 118775760#1 118775760#3 118775760#4 32060017 115029627#0 115029627#2 115029627#3 1058293024 1058293023 79860153 1058293027 79860149 -346489802#4 -346489802#3 -346489802#2 -346489802#1 -346489802#0 -23807827#4 -23807827#2 -23807827#0 36989256 38666230 1058552705 974477361 1058552704 974477358 1058552710 24615870 97111267#0 665839497#0 665839497#1 -674234534#9 -674234534#8 -674234534#7 -674234534#6 -674234534#4 -674234534#3 -674234534#1 -674234534#0 672714108 672714107#2 1063621817 1063621816 672711748 674234533#0 674234533#1 674234533#2 674234533#3 111662797 23888174 406632776#0-AddedOnRampEdge 406632776#0 406632776#1 406632776#2 265023090 25455991 450546037 1063621812 1063621811 1063621810 1063621813 1064513136 -25569954 -1075716931#2 -1075716931#0 -16747332#0 1075716933 -25215957#15 -25215957#14 -25215957#13 -25215957#12 -25215957#10 -25215957#9 -25215957#8 -25215957#7 -25215957#6 -25215957#5 -25215957#4 -25215957#3 -25215957#2 -25215957#1 -25215957#0 -122103279#1 -122103279#0 -1065129005 -122103281 -122103283#0 531747823#2 -25468145"/>
    </vehicle>
    <vehicle id="bus10" type="bus_bus" depart="13.39" departLane="best">
        <route edges="80767307#0 80767307#1 37932920#0 37932920#1 -27120103 -23814986#0 -22986084#4 -22986084#1 24161642#0 24161642#2 24161642#3 24161642#5 24161642#6 24161642#7 24161642#8 23957570#0 23957570#2 23957570#3 23957570#4 24917093 990138824 24917219#1 74199063#0 74199063#1 74199063#2 75601419 31301717#3 24094895 24094897#2 24094897#3 24054414#0 24054414#1 97236432#0 97236432#1 97236432#2 97236432#3 97236424#0 68286123#0 306120648 66860331 755263200 -306120651 97749768#0 97749768#1 -68502196"/>
    </vehicle>
    <vehicle id="bus11" type="bus_bus" depart="14.73" departLane="best" departSpeed="max">
        <route edges="-221475938 -299628307#4 -299628307#3 -299628307#2 -299628307#0 -299628309 -543169334#0 -23809441#2 -23809441#1 -23809441#0 1059188632#0 23671966#0 23671966#1 23671966#2 23671966#3 23671966#4 23671966#5 23671966#6 23671966#7 25832697#0 25832697#1 25832697#2 25832697#3 497884797 214666816 497884796 -24374074#2 -24374074#1 -24374074#0 -97117411#6 -97117411#5 -97117411#4 -97117411#3 -97117411#2 -97117411#1 -97117416 -23680878#9 -23680878#8 -23680878#7 -23680878#5 -23680878#3 -23680878#2 -23680878#0 308178203 308178199 308178200 829951748 829951745 308178202#0 308178202#1 23795382 35209301 24789912 84690459 240607362 23857969#0 23857969#1 23857969#2 23857969#3 222748808#0 23952134#0 23952134#1 23952134#2 24581836#0 -23857970#1 -24374070#1 -24374070#0 -24374069"/>
    </vehicle>
    <vehicle id="bus12" type="bus_bus" depart="16.07" departLane="best">
        <route edges="37247629 312760664 312760660 312760656#0 214666816 497884796 -24374074#2 -24374074#1 -24374074#0 -97117411#6 -97117411#5 -97117411#4 -97117411#3 -97117411#2 -97117411#1 -97117416 -23680878#9 -23680878#8 -23680878#7 -23680878#5 -23680878#3 -23680878#2 -23680878#0 308178203 308178199 308178200 829951748 -823407788 -308178198 -24479576#1 974959832#0 22986312#0 22986312#2 23762833 23762742 24095640 239979891 97121841#0 24771362#0 24802988#0 24802988#2 24802988#4 24802988#5 24802988#6"/>
    </vehicle>
    <vehicle id="bus13" type="bus_bus" depart="17.41" departLane="best">
        <route edges="32507308#0 32507308#1 -32507308#1 -32507308#0 25610164#2 -36846951#1 78363250 1059506975 1059188627 -419226782#2 -419226782#1 -419226782#0 -421813732 -31343408#2 -31343408#1 -31343408#0 -461923146#3 -461923146#2 -461923146#1 -461923147 -419226778#1 -419226778#0 -23007976#1 -23007976#0 -23004629 1059188628 1026103342 -109438718#2 -109438718#1 -109438718#0 -809938444#5 -809938444#4 -809938444#2 -809938444#0 -497883333#2 -497883333#1 -497883333#0 -48400051 -25792390 35208428 497883325 -23302058 -497884795 -42285203 -214754042 -497884797 497884797 214666816 497884796 -24374074#2 -24374074#1 -24374074#0 24728628#0 24728628#1 24728628#2 24728628#4 24728628#5 24728628#6 24728628#7 24728628#8 32225707#0 32225707#1 32225707#2 32225707#3 24728630#1 24728630#2 916003336 -754578288#9 -754578288#8 -754578288#7 -754578288#6 -754578288#5 -754578288#2 1055765964#0 24915419#0 24915419#1 974477368 974959836 974477367 1026054012 36997315#0 -31115992 -51764535 24479774#0 24479774#1 24479774#2 974477364#0 974477364#1 974477363 1058552720#0 1058552720#1 1058552720#2 1056577100 1056577101#0 1056577101#1 23951873#0 23951873#1 23951874 483221970 483221966 -97111243#1 31115950 483221945 483221944 483221943 31115948 483221947 483221946 31115949"/>
    </vehicle>
    <vehicle id="bus14" type="bus_bus" depart="18.75" departLane="best" departSpeed="max">
        <route edges="161758826 -24479373#0 -421806749#1 -421806749#0 -574541256#1 -574541256#0 -24226975#2 -24226975#1 -24226975#0 23809348#0 23809348#1 23809348#2 23809348#3 23809348#4 97004473#0 97004473#1 33168206#0 33168206#1 1059506975 1059188627 -419226782#2 -419226782#1 -419226782#0 -421813732 -31343408#2 -31343408#1 -31343408#0 -461923146#3 -461923146#2 -461923146#1 -461923147 -419226778#1 -419226778#0 -23007976#1 -23007976#0 -23004629 1059188628 1026103342 744668217 -24558722#9 -24558722#8 -24558722#7 -24558722#6 -24558722#5 -24558722#4 -24558722#2 -24558722#1 -24558722#0 -109372552#1 97006158#0 97006158#1 97006158#2"/>
    </vehicle>
    <vehicle id="bus15" type="bus_bus" depart="20.09" departLane="best" departSpeed="max">
        <route edges="-572668378 -176477314#0 26414037#2 -299631528#7 -299631528#6 -299631528#5 -299631528#4 -299631528#3 -299631528#2 -299631528#1 -299631528#0 26601422#0 26601426#0 26601426#1 25792391#4 25792391#5 25792391#8 25792391#9 25792391#10 809934474 1059188631 1059188630 25792389 97115292#0 97115292#1 97115292#3 97115292#4 97115292#5 97115292#6 97115292#7 -24055264#1 24055260"/>
    </vehicle>
    <vehicle id="bus16" type="bus_bus" depart="21.43" departLane="best" departSpeed="max">
        <route edges="36847254#0 36847254#1 406997794#1 36847275 291944934 -24479365#3 -24479365#2 -24479365#1 -24479365#0 -25659474#3 -25659474#2 -25659474#1 -25659474#0 -33168188#1 -36846951#1 78363250 1059506975 23809257 97004470#0 97004470#1 97004470#3 1059506974#1 24392581#1 24392581#2 24392581#3 -24479374#2 -24479374#1 -24479374#0 66831081#0 66831081#1 66831081#2 38967940 38967941 32928698 24479376#0 24479375 26628685#0 26628685#1 26628685#3 81846322#2 81846322#3 81846322#4 81846322#5 809934473#0 809934473#1 809934473#2 26622409#1 1059188631 24479380 1060528646 152276371#1 23809430 1060528645 23809441#0 23809441#1 23809441#2 23809441#3 23809441#4 23982879 24965643 574483649#1 574483649#2 245017816#0 24965829#0 24965829#1"/>
    </vehicle>
    <vehicle id="bus17" type="bus_bus" depart="22.77" departLane="best">
        <route edges="38590701 36806394#1 36806394#2 36836085#0 36836085#1 36836085#2 36836086 36836090#0 36836090#1 36836094 37318361#2 32507301#0 32507301#1 -320176572#3 32507299#1 32507299#2 32507299#4 32507299#5 32507299#6 -97084818#1 -97084818#0 37103703 97084814 37681145 37791768 53127065 118704988 118768567 37791769#0 37791769#1 118775764 118775760#0 118775760#1 118775760#3 118775760#4 32060017 115029627#0 115029627#2 115029627#3 1058293024 1058293023 79860153 1058293027 79860149 -346489802#4 -346489802#3 -346489802#2 -346489802#1 -346489802#0 -23807827#4 -23807827#2 -23807827#0 36989256 38666230 1058552705 974477361 1058552704 36989258 -984089091#0 -991646982#3 -991646982#2 -991646982#1 -991646982#0 -991646978 -23913967#2 -23913967#1 -23913967#0 97236442 1058552711 1063310874 23888166#0 23888166#1 23888166#2 23888166#3 23888166#4 23888166#5 23888166#6 23888166#7 23888166#8 23888166#9 23888166#10 23888166#11 307279423 23914028#0 23914028#1 1058552714 -24615057 24094888#0 24094888#1 307004696 307004693 78461178#1 307004715 -24226872#14 -24226872#13 -24226872#12 -24226872#11 -24226872#10 -24226872#9 -24443833#1 -24443833#0 24443833#0 24443833#1"/>
    </vehicle>
    <vehicle id="bus18" type="bus_bus" depart="24.11" departLane="best" departSpeed="max">
        <route edges="25594795#0 189295419 -25594791#1 25302315 -116369987#0 -33168191#0 -36846952#1 -36846951#1 78363250 1059506975 1059188627 -419226782#2 -419226782#1 -419226782#0 -421813732 -31343408#2 -31343408#1 -31343408#0 -461923146#3 -461923146#2 -461923146#1 -461923147 -419226778#1 -419226778#0 -23007976#1 -23007976#0 -23004629 1059188628 1026103342 -109438718#2 -109438718#1 -109438718#0 -809938444#5 -809938444#4 -809938444#2 -809938444#0 -497883333#2 -497883333#1 24711288#1 24711288#2 24711288#3 24711288#4 24711288#5 24711288#6 24711288#7 24711288#8 24711288#9 24711288#11 24711288#12 24711288#14 24711288#15 24711288#16 24711288#17 97117418#1 97117418#2 40367379 308178203 308178199 308178200 829951748 -823407788 -308178198 -24479576#1 974959832#0 974959832#1 974959832#2 24755681#0 24755681#2 23763110#0 23763110#1 260532241#0 591045085#0 23951161 42288377#0 684985752#0 684985752#1 684985752#2 684985752#6 684985752#7 684985752#8 684985752#9 24054414#0 24054414#1 24443789#0 24443789#2 24443789#3 24443789#4 24443789#5 24443789#6 24443826#0 24443826#1 1059175213 24443825#0 24443825#1 24443824#0 24443824#1 24443824#2 37133036 -151230133"/>
    </vehicle>
    <vehicle id="bus19" type="bus_bus" depart="25.45" departLane="best" departSpeed="max">
        <route edges="-27172269#2 -27172269#1 -27172269#0 -30789851#9 -30789851#8 -30789851#7 -30789851#5 -30789851#4 -30789851#3 -30789851#1 -30789851#0 23809386#1 24744102 84244339#0 84244339#1 176477269#0 176477269#1 84244313#0 84244313#1 84244313#2 84244313#3 84244317 -26601422#1 26601426#0 26601426#1 25792391#4 25792391#5 25792391#8 25792391#9 25792391#10 809934474 1059188631 1059188630 25792389 97115292#0 97115292#1 97115292#3 97115292#4 97115292#5 97115292#6 97115292#7 97115292#9 97115292#10 97150496 497884793 497883325 497883323 497883324 35208481 48400051 497883343 497883333#1 497883333#2 809938444#0 809938444#2 809938444#3 809938444#5 109438718#0 109438718#1 109438718#2 744668217 1026103341 23004629 23007976#0 23007976#1 419226778#0 419226778#1 461923147 461923146#1 461923146#2 461923146#3 31343411 31343408#1 31343408#2 421813732 419226782#0 419226782#1 419226782#2 1059506976 36846951#0 33168188#0 25659474#0 25659474#1 25659474#2 25659474#3 24479365#0 24479365#1 24479365#2 24479365#3 37792173 292088665#1 292088665#2 320176573#7 24479370#0 36836084#0 36836084#1 407005409#0 407005409#1 407005408#0 -38590703#6 -38590703#5 -38590703#4 -38590703#3 -38590703#2 -38590703#1 -38590703#0 -38590705#1 -38590705#0"/>
    </vehicle>
    <vehicle id="bus20" type="bus_bus" depart="26.79" departLane="best">
        <route edges="-191633685#5 -191633685#4 -191633685#3 -191633685#2 -191633685#1 -191633685#0 1058552718 1058552717 37134283 97236434 307263047 97236445#0 37134282#0 37134282#2 37134282#4 37134282#5 37134282#7 24443825#0 24443825#1 24443824#0 24443824#1 24443824#2 24443824#3 306097130 306097131#0 306097131#1 86867171#0 97236424#0 68286123#0 306120648 66860331 755263200 -755263201 -66860331 -306120648"/>
    </vehicle>
    <vehicle id="bus21" type="bus_bus" depart="28.12" departLane="best">
        <route edges="-23302058 -497884795 -42285203 -214754042 214754042 42285203 497884795 40484490 497883323 497883324 35208481 48400051 497883343 497883333#1 497883333#2 809938444#0 809938444#2 809938444#3 809938444#5 109438718#0 109438718#1 109438718#2 744668217 1026103341 23004629 23007976#0 23007976#1 419226778#0 419226778#1 461923147 461923146#1 461923146#2 461923146#3 31343411 31343408#1 31343408#2 421813732 25302471 419226781 -24744093#4 -24744093#3 -24744093#2 -24744093#1 -24744093#0 97004470#3 1059506974#1 24392581#1 24392581#2 24392581#3 -24479374#2 -24479374#1 -24479374#0 -37391724#2 -37391724#1"/>
    </vehicle>
    <vehicle id="bus22" type="bus_bus" depart="29.46" departLane="best">
        <route edges="245017809#3 -245017809#3 -245017809#2 -245017809#1 -245017809#0 -24451124#1 -24451124#0 -35220610#0 -27195496#2 -27195496#1 -27195496#0 -80375831#3 -80375831#2 -80375831#1 -80375831#0 -23809484#3 -23809484#1 -23809484#0 23976436#0 23976436#1 34865541 528695740 97230175#0 97230175#1 97230175#2 97230175#3 97230175#5 97230175#6 97230175#7 97230175#8 312760668#0 23680645 23680758 312760676 312760672#0 312760672#1 312760672#2 -97117411#6 -97117411#5 -97117411#4 -97117411#3 -97117411#2 -97117411#1 -97117416 -23680878#9 -23680878#8 -23680878#7 -23680878#5 -23680878#3 -23680878#2 -23680878#0 308178203 308178199 308178200 829951748 -823407788 -308178198 -24479576#1 974959832#0 974959832#1 974959832#2 24755681#0 24755681#2 23763110#0 23763110#1 260532241#0 42288376#0 42288376#4 42288376#5 42288376#7 -67624761#2 -24161871#1 -24161871#0 24161870#0 24161870#1 24161870#2 -24389747 -97251502 -24389744 -24454097#3 -24454097#2 -24454097#1 -24454097#0 -31663311#1 -31663311#0 -31663310 -68286130#8 -68286130#7 -68286130#6 -68286130#5 -68286130#4 -68286130#3 -68286130#2 -697625113#3 -697625113#1 -697625113#0 24389740 118726461#0 118726461#1 118726461#2 697625112 -102189362 -24442251 118775763#0 118775763#1 118775763#2 1061041467 -85334603#13 -85334603#12 -85334603#11"/>
    </vehicle>
    <vehicle id="bus23" type="bus_bus" depart="30.80" departLane="best" departSpeed="max">
        <route edges="-53198086 53198085 53198077#2 37134282#4 37134282#5 37134282#7 24443825#0 24443825#1 24443824#0 24443824#1 24443824#2 24443824#3 306097130 306097131#0 306097131#1 86867171#0 97236424#0 68286123#0 306120648 66860331 755263200 -306120651 24436838#1 24436838#2 42288372#0 42288372#1 37016910#1 1063621821 24389742 97251509#0 97251509#2 97121839#0 97121839#2 97121839#3 293396882#0 293396882#1 293396882#2 -68286130#8 -68286130#7 -68286130#6 -68286130#5 -68286130#4 -68286130#3 -68286130#2 -697625113#3 -697625113#1 -697625113#0 24389740 118726461#0 118726461#1 118726461#2 697625112 -102189362 -24442251 118775763#0 118775763#1 118775763#2 -97084818#3 -32507299#6 -32507299#5 -32507299#4 -32507299#2 -32507299#1 -320176572#2 -320176572#1 -320176571#1 -320176571#0 -292088660#0 39069164 320176573#3 -24479369#4 -28449808"/>
    </vehicle>
    <vehicle id="bus24" type="bus_bus" depart="32.14" departLane="best" departSpeed="max">
        <route edges="-32507275 -461923146#2 -461923146#1 -461923147 -419226778#1 -419226778#0 -23007976#1 -23007976#0 -23004629 1059188628 1026103342 -109438718#2 -109438718#1 -109438718#0 -809938444#5 -809938444#4 -809938444#2 -809938444#0 -497883333#2 -497883333#1 24711288#1 24711288#2 24711288#3 24711288#4 24711288#5 24711288#6 24711288#7 24711288#8 24711288#9 24711288#11 24711288#12 24711288#14 24711288#15 24711288#16 24711288#17 97117418#1 97117418#2 40367379 308178203 308178199 308178200 829951748 -823407788 -308178198 -24479576#1 974959832#0 974959832#1 974959832#2 24755681#0 24755681#2 23763110#0 23763110#1 260532241#0 591045085#0 23951161 42288377#0 684985752#0 684985752#1 684985752#2 684985752#6 684985752#7 684985752#8 684985752#9 24054414#0 24054414#1 24443789#0 24443789#2 24443789#3 24443789#4 24443789#5 24443789#6 97251496#0 97251496#2 24443823#0 -24443821#1 -24443821#0 37134296 305272357#0 305272357#1 1058552716 1058552715 1058552719 1058552718 1058552717 37134283 97236434 78461182"/>
    </vehicle>
    <vehicle id="bus25" type="bus_bus" depart="33.48" departLane="best">
        <route edges="24732720#1 -25703475#2 -25703475#0 -24443832 -840458164#1 -840458164#0 24443831#2 24454141#0 24454141#1 24443824#2 24443824#3 306097130 306097131#0 306097131#1 86867171#0 -306792403#2 -306792403#0 -97251505#6 -97251505#4 -97251505#3 -97251505#2 -97251505#1 -24916515#4 -24916515#1 30686779#0 24161870#2 -24389747 -97251502 24913911#0 24913911#1"/>
    </vehicle>
    <vehicle id="bus26" type="bus_bus" depart="34.82" departLane="best">
        <route edges="-25212470#1 -25212470#0 -25485486#1 -25485486#0 25212450 122103279#0 122103279#1 25215957#0 25215957#1 25215957#2 25215957#3 25215957#4 25215957#5 25215957#6 25215957#7 25215957#8 25215957#9 25215957#10 25215957#12 25215957#13 25215957#14 25215957#15 1075716942 1075716934#0 1075716934#1 16747332#0 1075716931#0 1075716931#2 1075716931#3 25455958#0 25455958#1 1063621812 1063621811 1063621810 25455993#0 25455993#1 25455993#2 24054404#0 24054404#1 406632779 372072465#1 372072468 23795572#0 23795572#1 23795572#2 23795572#3 450546841 450546842#0 450546842#1 23884325-AddedOnRampEdge 23884325 2132510 1063118950 23951665 29310670#0 29310670#1 29310670#2 29310670#4 657200056 97251483 571994484 571994483 571994482 23951769#0 23951769#1 483221929#0 483221929#1 483221933 395046131 31115948 483221947 483221946 31115949 97111243#0 -483221966 -483221968 -23951874 23951872 974477366#0 974477366#1 23058066#0 23058066#1 51764535 31115991 97111250 1026054011 474125276 974477368 974959836 37246725#0 37246725#1 37246725#2 37246725#3 37246725#6 37246725#7 37246725#10 37246725#11 37246725#12 37246725#13 37246725#14 37246725#17 474125275#0 474125275#1 1059188633 974959837#0 974959837#1 307366527 80375822 80176725-AddedOnRampEdge 80176725 75282117 75282095#0 75282095#1 75282095#2 75282095#3 75282095#6 75282095#9 25874244 25874922 25874249 112815618 307407915 97286587#1 307430848#0 307430848#1 -307430847 1055616101 24615881 1055616102 1055616104 37193963 32917648#0 32917648#1 32917648#2 76902366 309521772#0 309521772#1 309521772#2 309521772#3 309521772#4"/>
    </vehicle>
    <vehicle id="bus27" type="bus_bus" depart="36.16" departLane="best" departSpeed="max">
        <route edges="-24914984 -809923546#4 -809923546#3 -809923546#2 -809923546#1 -809923546#0 -24443774#1 -24443774#0 121911100#0 121911100#1 -97121839#0 -97251509#2 -97251509#0 37016911 1057256026#1 1057256026#2 37016910#0 -42288372#1 -42288372#0 -24436838#2 -24436838#1 306120651 -755263201 -66860331 -306120648 -68286123#0 -97236424#1 -306792403#2 -306792403#0 -97251505#6 -97251505#4"/>
    </vehicle>
    <vehicle id="bus28" type="bus_bus" depart="37.50" departLane="best">
        <route edges="97251491#2 -23854781#5 -23854781#4 -23854781#3 -23854781#2 -23854781#1 -23854781#0 97251483 571994484 571994483 571994482 23951769#0 23951769#1 483221929#0 483221929#1 483221933 395046131 31115948 483221947 483221946 31115949 97111243#0 -483221966 -483221968 -23951874 23951872 974477366#0 974477366#1 23058066#0 23058066#1 51764535 31115991 97111250 1026054011 474125276 51764179 -25572607#12 -25572607#10 -25572607#9 -25572607#8 -25572607#5 -25572607#4 -25572607#3 -25572607#2 -25572607#1 25572607#1"/>
    </vehicle>
    <vehicle id="bus29" type="bus_bus" depart="38.84" departLane="best">